@<TRIPOS>MOLECULE
67M
  102   105     1     0     0
SMALL
bcc


@<TRIPOS>ATOM
      1 O55          3.8000    -3.2120    -1.4500 o          1 67M      -0.582100
      2 C54          4.0130    -3.2910    -0.2510 c          1 67M       0.677100
      3 C56          3.2870    -4.2810     0.6240 c3         1 67M      -0.179100
      4 N53          4.9270    -2.5300     0.3900 ns         1 67M      -0.573900
      5 C35          5.7040    -1.5070    -0.2470 c6         1 67M       0.068700
      6 C36          7.1900    -1.6760     0.0670 c6         1 67M       0.119100
      7 O49          7.6640    -2.8930    -0.4910 os         1 67M      -0.414900
      8 C50          7.8460    -3.9630     0.2940 c          1 67M       0.655100
      9 O52          7.6280    -3.9690     1.4760 o          1 67M      -0.541000
     10 C51          8.3630    -5.1200    -0.5030 c3         1 67M      -0.157100
     11 C37          8.0000    -0.5420    -0.5460 c6         1 67M       0.109100
     12 O45          9.3400    -0.6550    -0.0880 os         1 67M      -0.437900
     13 C46         10.3050    -1.0710    -0.9240 c          1 67M       0.649100
     14 C48         11.6100    -1.1980    -0.2020 c3         1 67M      -0.157100
     15 O47         10.1230    -1.3120    -2.0860 o          1 67M      -0.510000
     16 C38          7.4290     0.7990    -0.0740 c6         1 67M       0.152100
     17 C40          8.1360     1.9650    -0.7300 c3         1 67M       0.148400
     18 O41          7.5820     3.1510    -0.1690 os         1 67M      -0.418900
     19 C42          8.0440     4.3190    -0.6080 c          1 67M       0.646100
     20 C44          7.3580     5.4670     0.0690 c3         1 67M      -0.156100
     21 O43          8.9040     4.4130    -1.4460 o          1 67M      -0.537000
     22 O39          6.0720     0.8570    -0.4390 os         1 67M      -0.420600
     23 C34          5.2720    -0.1070     0.2020 c6         1 67M       0.336900
     24 O33          3.9680     0.0870    -0.1670 os         1 67M      -0.373600
     25 C32          3.3160     1.1790     0.4600 c3         1 67M       0.142400
     26 C31          1.8330     1.0660     0.1660 c3         1 67M      -0.106400
     27 C30          1.0710     2.2200     0.8010 c3         1 67M       0.058300
     28 N28         -0.3530     2.1190     0.5570 na         1 67M       0.093400
     29 N27         -0.8860     2.6080    -0.5450 nc         1 67M      -0.220800
     30 N26         -2.1440     2.3160    -0.5430 nd         1 67M      -0.330000
     31 C29         -1.2800     1.4870     1.2960 cc         1 67M      -0.270600
     32 C25         -2.4400     1.6220     0.5730 cd         1 67M       0.296600
     33 C24         -3.8000     1.1080     0.9300 c3         1 67M       0.216500
     34 N16         -4.8550     1.6150     0.0700 n3         1 67M      -0.715500
     35 C17         -5.9540     2.4090     0.6240 c3         1 67M       0.086500
     36 C21         -5.5510     3.8600     0.9410 c3         1 67M      -0.042700
     37 C23         -4.5860     4.0130     2.1140 c3         1 67M      -0.083600
     38 C22         -5.0070     4.5690    -0.2940 c3         1 67M      -0.083600
     39 C18         -6.7010     1.6990     1.7880 c          1 67M       0.917600
     40 O20         -6.3920     0.5250     2.0480 o          1 67M      -0.825800
     41 O19         -7.5880     2.3840     2.3350 o          1 67M      -0.825800
     42 S13         -5.1170     0.8380    -1.3470 sy         1 67M       1.328200
     43 O14         -5.5780     1.8030    -2.3350 o          1 67M      -0.636300
     44 O15         -3.9280     0.0450    -1.6300 o          1 67M      -0.636300
     45 C10         -6.4560    -0.2950    -1.0770 ca         1 67M      -0.257500
     46 C09         -7.7470     0.0460    -1.4490 ca         1 67M      -0.013500
     47 C08         -8.7830    -0.8400    -1.2010 ca         1 67M      -0.136000
     48 C11         -6.1950    -1.5150    -0.4690 ca         1 67M      -0.013500
     49 C12         -7.2350    -2.3930    -0.2320 ca         1 67M      -0.136000
     50 C07         -8.5460    -2.0710    -0.5900 cp         1 67M      -0.002000
     51 C01         -9.6530    -3.0140    -0.3340 cp         1 67M      -0.019000
     52 C06        -10.9170    -2.5480     0.0330 ca         1 67M      -0.115500
     53 C05        -11.9560    -3.4340     0.2760 ca         1 67M      -0.136000
     54 C04        -11.7510    -4.8020     0.1530 ca         1 67M      -0.138000
     55 C03        -10.4990    -5.2770    -0.2150 ca         1 67M      -0.136000
     56 C02         -9.4590    -4.3910    -0.4560 ca         1 67M      -0.115500
     57 H1           3.5620    -5.2930     0.3250 hc         1 67M       0.062033
     58 H2           3.4990    -4.1680     1.6850 hc         1 67M       0.062033
     59 H3           2.2130    -4.1790     0.4710 hc         1 67M       0.062033
     60 H4           5.0280    -2.6460     1.3860 hn         1 67M       0.315500
     61 H5           5.5500    -1.5820    -1.3260 h1         1 67M       0.125700
     62 H6           7.3400    -1.6720     1.1520 h1         1 67M       0.074700
     63 H7           9.3400    -4.8810    -0.9250 hc         1 67M       0.073033
     64 H8           8.4550    -6.0020     0.1240 hc         1 67M       0.073033
     65 H9           7.6990    -5.3410    -1.3390 hc         1 67M       0.073033
     66 H10          7.9510    -0.5950    -1.6380 h1         1 67M       0.105700
     67 H11         11.8110    -0.3190     0.4100 hc         1 67M       0.071033
     68 H12         11.5770    -2.0580     0.4690 hc         1 67M       0.071033
     69 H13         12.4210    -1.3420    -0.9100 hc         1 67M       0.071033
     70 H14          7.5430     0.8740     1.0180 h1         1 67M       0.056700
     71 H15          9.2080     1.9150    -0.5310 h1         1 67M       0.065200
     72 H16          7.9860     1.9400    -1.8130 h1         1 67M       0.065200
     73 H17          7.5020     5.4130     1.1490 hc         1 67M       0.070700
     74 H18          7.7480     6.4120    -0.2950 hc         1 67M       0.070700
     75 H19          6.2840     5.4290    -0.1150 hc         1 67M       0.070700
     76 H20          5.3960    -0.0120     1.2980 h2         1 67M       0.017700
     77 H21          3.4910     1.1500     1.5430 h1         1 67M       0.029700
     78 H22          3.7060     2.1330     0.0900 h1         1 67M       0.029700
     79 H23          1.6690     1.0740    -0.9140 hc         1 67M       0.077700
     80 H24          1.4540     0.1170     0.5520 hc         1 67M       0.077700
     81 H25          1.2180     2.2410     1.8810 h1         1 67M       0.059700
     82 H26          1.4050     3.1780     0.4040 h1         1 67M       0.059700
     83 H27         -1.0560     1.0170     2.2390 h4         1 67M       0.175000
     84 H28         -3.7850     0.0170     0.9520 h1         1 67M       0.074700
     85 H29         -4.0380     1.4010     1.9490 h1         1 67M       0.074700
     86 H30         -6.6990     2.5050    -0.1730 h1         1 67M       0.045700
     87 H31         -6.4870     4.3460     1.2260 hc         1 67M       0.064700
     88 H32         -4.5040     5.0650     2.3950 hc         1 67M       0.025200
     89 H33         -4.9200     3.4690     2.9990 hc         1 67M       0.025200
     90 H34         -3.5800     3.6720     1.8650 hc         1 67M       0.025200
     91 H35         -5.7210     4.5450    -1.1190 hc         1 67M       0.025200
     92 H36         -4.7920     5.6160    -0.0730 hc         1 67M       0.025200
     93 H37         -4.0860     4.1000    -0.6390 hc         1 67M       0.025200
     94 H39         -7.9560     0.9840    -1.9450 ha         1 67M       0.146000
     95 H40         -9.7840    -0.5730    -1.5160 ha         1 67M       0.122000
     96 H41         -5.1910    -1.7910    -0.1790 ha         1 67M       0.146000
     97 H42         -7.0220    -3.3360     0.2560 ha         1 67M       0.122000
     98 H43        -11.0880    -1.4850     0.1530 ha         1 67M       0.137000
     99 H44        -12.9250    -3.0540     0.5690 ha         1 67M       0.122000
    100 H45        -12.5620    -5.4940     0.3420 ha         1 67M       0.119000
    101 H46        -10.3300    -6.3410    -0.3210 ha         1 67M       0.122000
    102 H47         -8.4950    -4.7760    -0.7630 ha         1 67M       0.137000
@<TRIPOS>BOND
     1     1     2 2   
     2     2     3 1   
     3     2     4 1   
     4     3    57 1   
     5     3    58 1   
     6     3    59 1   
     7     4     5 1   
     8     4    60 1   
     9     5     6 1   
    10     5    23 1   
    11     5    61 1   
    12     6     7 1   
    13     6    11 1   
    14     6    62 1   
    15     7     8 1   
    16     8     9 2   
    17     8    10 1   
    18    10    63 1   
    19    10    64 1   
    20    10    65 1   
    21    11    12 1   
    22    11    16 1   
    23    11    66 1   
    24    12    13 1   
    25    13    14 1   
    26    13    15 2   
    27    14    67 1   
    28    14    68 1   
    29    14    69 1   
    30    16    17 1   
    31    16    22 1   
    32    16    70 1   
    33    17    18 1   
    34    17    71 1   
    35    17    72 1   
    36    18    19 1   
    37    19    20 1   
    38    19    21 2   
    39    20    73 1   
    40    20    74 1   
    41    20    75 1   
    42    22    23 1   
    43    23    24 1   
    44    23    76 1   
    45    24    25 1   
    46    25    26 1   
    47    25    77 1   
    48    25    78 1   
    49    26    27 1   
    50    26    79 1   
    51    26    80 1   
    52    27    28 1   
    53    27    81 1   
    54    27    82 1   
    55    28    29 1   
    56    28    31 1   
    57    29    30 2   
    58    30    32 1   
    59    31    32 2   
    60    31    83 1   
    61    32    33 1   
    62    33    34 1   
    63    33    84 1   
    64    33    85 1   
    65    34    35 1   
    66    34    42 1   
    67    35    36 1   
    68    35    39 1   
    69    35    86 1   
    70    36    37 1   
    71    36    38 1   
    72    36    87 1   
    73    37    88 1   
    74    37    89 1   
    75    37    90 1   
    76    38    91 1   
    77    38    92 1   
    78    38    93 1   
    79    39    40 1   
    80    39    41 1   
    81    42    43 2   
    82    42    44 2   
    83    42    45 1   
    84    45    46 ar  
    85    45    48 ar  
    86    46    47 ar  
    87    46    94 1   
    88    47    50 ar  
    89    47    95 1   
    90    48    49 ar  
    91    48    96 1   
    92    49    50 ar  
    93    49    97 1   
    94    50    51 1   
    95    51    52 ar  
    96    51    56 ar  
    97    52    53 ar  
    98    52    98 1   
    99    53    54 ar  
   100    53    99 1   
   101    54    55 ar  
   102    54   100 1   
   103    55    56 ar  
   104    55   101 1   
   105    56   102 1   
@<TRIPOS>SUBSTRUCTURE
     1 67M         1 TEMP              0 ****  ****    0 ROOT
