@<TRIPOS>MOLECULE
67M
  102   105     1     0     0
SMALL
No Charge or Current Charge


@<TRIPOS>ATOM
      1 O55          2.4090    -2.5050    -0.9880 o          1 67M      -0.582100
      2 C54          3.0080    -2.9520    -0.0220 c          1 67M       0.610100
      3 C56          2.3990    -3.9850     0.9150 c3         1 67M      -0.179100
      4 N53          4.2920    -2.5770     0.2960 ns         1 67M      -0.506900
      5 C35          5.1060    -1.5670    -0.4280 c6         1 67M       0.068700
      6 C36          6.6270    -1.9350    -0.4260 c6         1 67M       0.142300
      7 O49          6.8470    -3.2160    -1.0650 os         1 67M      -0.438100
      8 C50          6.7280    -4.3940    -0.3770 c          1 67M       0.606100
      9 O52          6.5030    -4.4790     0.8220 o          1 67M      -0.492000
     10 C51          6.9910    -5.5920    -1.2740 c3         1 67M      -0.157100
     11 C37          7.4740    -0.8280    -1.1340 c6         1 67M       0.132300
     12 O45          8.8950    -1.0890    -0.9930 os         1 67M      -0.461100
     13 C46          9.5570    -1.9280    -1.8520 c          1 67M       0.600100
     14 C48         11.0190    -2.0770    -1.4620 c3         1 67M      -0.157100
     15 O47          9.0810    -2.3870    -2.8800 o          1 67M      -0.461000
     16 C38          7.1420     0.5610    -0.5190 c6         1 67M       0.175300
     17 C40          7.8530     1.7260    -1.2670 c3         1 67M       0.171600
     18 O41          7.6580     2.9560    -0.5370 os         1 67M      -0.442100
     19 C42          8.1940     4.1020    -1.0580 c          1 67M       0.597100
     20 C44          7.8980     5.3080    -0.1790 c3         1 67M      -0.156100
     21 O43          8.8350     4.1590    -2.0980 o          1 67M      -0.488000
     22 O39          5.7170     0.7950    -0.5890 os         1 67M      -0.467000
     23 C34          4.9390    -0.1400     0.1760 c6         1 67M       0.383300
     24 O33          3.5670     0.2800     0.1430 os         1 67M      -0.420000
     25 C32          3.2680     1.5210     0.7950 c3         1 67M       0.165600
     26 C31          1.7520     1.7480     0.6800 c3         1 67M      -0.106400
     27 C30          1.2950     3.0630     1.3440 c3         1 67M       0.087600
     28 N28         -0.1570     3.2790     1.2490 na         1 67M       0.114800
     29 N27         -0.6920     4.0360     0.2500 nc         1 67M      -0.220800
     30 N26         -1.9860     4.0270     0.4290 nd         1 67M      -0.330000
     31 C29         -1.1270     2.7860     2.0840 cc         1 67M      -0.238000
     32 C25         -2.2890     3.2550     1.5360 cd         1 67M       0.231300
     33 C24         -3.7090     3.0510     2.0350 c3         1 67M       0.216500
     34 N16         -4.5200     2.0000     1.3480 n3         1 67M      -0.715500
     35 C17         -6.0110     2.0470     1.6490 c3         1 67M       0.086500
     36 C21         -6.7820     3.3020     1.0960 c3         1 67M      -0.042700
     37 C23         -6.9500     4.5010     2.0690 c3         1 67M      -0.083600
     38 C22         -6.2760     3.7590    -0.2950 c3         1 67M      -0.083600
     39 C18         -6.4830     1.6690     3.1130 c          1 67M       0.707000
     40 O20         -5.9370     2.1900     4.0790 o          1 67M      -0.720500
     41 O19         -7.3610     0.8240     3.2340 o          1 67M      -0.720500
     42 S13         -3.7950     0.4440     1.4110 sy         1 67M       1.186600
     43 O14         -2.6660     0.4840     0.4740 o          1 67M      -0.565500
     44 O15         -3.6190     0.0980     2.8250 o          1 67M      -0.565500
     45 C10         -5.0250    -0.6460     0.6690 ca         1 67M      -0.257500
     46 C09         -5.2600    -0.5860    -0.7170 ca         1 67M       0.004500
     47 C08         -6.2230    -1.4240    -1.3040 ca         1 67M      -0.118000
     48 C11         -5.7580    -1.5480     1.4630 ca         1 67M       0.004500
     49 C12         -6.7190    -2.3840     0.8690 ca         1 67M      -0.118000
     50 C07         -6.9730    -2.3410    -0.5250 cp         1 67M      -0.002000
     51 C01         -8.0010    -3.2320    -1.1540 cp         1 67M      -0.019000
     52 C06         -8.7830    -2.7900    -2.2520 ca         1 67M      -0.097500
     53 C05         -9.7470    -3.6260    -2.8410 ca         1 67M      -0.118000
     54 C04         -9.9510    -4.9230    -2.3460 ca         1 67M      -0.120000
     55 C03         -9.1890    -5.3840    -1.2610 ca         1 67M      -0.118000
     56 C02         -8.2260    -4.5480    -0.6710 ca         1 67M      -0.097500
     57 H1           3.0650    -4.8540     0.9700 hc         1 67M       0.062033
     58 H2           2.4330    -3.6000     1.9400 hc         1 67M       0.062033
     59 H3           1.3820    -4.2720     0.6230 hc         1 67M       0.062033
     60 H4           4.7080    -3.0460     1.0940 hn         1 67M       0.315500
     61 H5           4.7650    -1.5250    -1.4730 h1         1 67M       0.125700
     62 H6           6.9790    -1.9930     0.6150 h1         1 67M       0.074700
     63 H7           7.9510    -5.4500    -1.7810 hc         1 67M       0.073033
     64 H8           6.9520    -6.5430    -0.7310 hc         1 67M       0.073033
     65 H9           6.2820    -5.5670    -2.1090 hc         1 67M       0.073033
     66 H10          7.2110    -0.7960    -2.2020 h1         1 67M       0.105700
     67 H11         11.4480    -1.0800    -1.3130 hc         1 67M       0.071033
     68 H12         11.0710    -2.5050    -0.4550 hc         1 67M       0.071033
     69 H13         11.5920    -2.6630    -2.1880 hc         1 67M       0.071033
     70 H14          7.4590     0.5810     0.5340 h1         1 67M       0.056700
     71 H15          8.9240     1.4970    -1.3470 h1         1 67M       0.065200
     72 H16          7.4410     1.8000    -2.2830 h1         1 67M       0.065200
     73 H17          8.2550     5.1010     0.8360 hc         1 67M       0.070700
     74 H18          8.3210     6.2360    -0.5790 hc         1 67M       0.070700
     75 H19          6.8150     5.3820    -0.0330 hc         1 67M       0.070700
     76 H20          5.2870    -0.1420     1.2200 h2         1 67M       0.017700
     77 H21          3.5570     1.4830     1.8540 h1         1 67M       0.029700
     78 H22          3.8020     2.3540     0.3170 h1         1 67M       0.029700
     79 H23          1.4700     1.7610    -0.3800 hc         1 67M       0.077700
     80 H24          1.2260     0.9050     1.1460 hc         1 67M       0.077700
     81 H25          1.5720     3.0530     2.4060 h1         1 67M       0.059700
     82 H26          1.8090     3.9100     0.8720 h1         1 67M       0.059700
     83 H27         -0.9290     2.1660     2.9470 h4         1 67M       0.157000
     84 H28         -3.6520     2.8460     3.1120 h1         1 67M       0.074700
     85 H29         -4.1920     4.0260     1.9310 h1         1 67M       0.074700
     86 H30         -6.4610     1.2570     1.0380 h1         1 67M       0.045700
     87 H31         -7.8070     2.9460     0.9270 hc         1 67M       0.064700
     88 H32         -7.5600     5.2830     1.6000 hc         1 67M       0.025200
     89 H33         -7.4690     4.1980     2.9850 hc         1 67M       0.025200
     90 H34         -5.9960     4.9570     2.3490 hc         1 67M       0.025200
     91 H35         -6.2190     2.9080    -0.9850 hc         1 67M       0.025200
     92 H36         -6.9580     4.4990    -0.7300 hc         1 67M       0.025200
     93 H37         -5.2820     4.2150    -0.2280 hc         1 67M       0.025200
     94 H39         -4.7020     0.1100    -1.3410 ha         1 67M       0.128000
     95 H40         -6.3790    -1.3680    -2.3770 ha         1 67M       0.104000
     96 H41         -5.5970    -1.6010     2.5380 ha         1 67M       0.128000
     97 H42         -7.2840    -3.0610     1.5030 ha         1 67M       0.104000
     98 H43         -8.6510    -1.7840    -2.6430 ha         1 67M       0.119000
     99 H44        -10.3390    -3.2660    -3.6800 ha         1 67M       0.104000
    100 H45        -10.6970    -5.5710    -2.8020 ha         1 67M       0.101000
    101 H46         -9.3430    -6.3900    -0.8770 ha         1 67M       0.104000
    102 H47         -7.6380    -4.9290     0.1600 ha         1 67M       0.119000
@<TRIPOS>BOND
     1     1     2 2   
     2     2     3 1   
     3     2     4 1   
     4     3    57 1   
     5     3    58 1   
     6     3    59 1   
     7     4     5 1   
     8     4    60 1   
     9     5     6 1   
    10     5    23 1   
    11     5    61 1   
    12     6     7 1   
    13     6    11 1   
    14     6    62 1   
    15     7     8 1   
    16     8     9 2   
    17     8    10 1   
    18    10    63 1   
    19    10    64 1   
    20    10    65 1   
    21    11    12 1   
    22    11    16 1   
    23    11    66 1   
    24    12    13 1   
    25    13    14 1   
    26    13    15 2   
    27    14    67 1   
    28    14    68 1   
    29    14    69 1   
    30    16    17 1   
    31    16    22 1   
    32    16    70 1   
    33    17    18 1   
    34    17    71 1   
    35    17    72 1   
    36    18    19 1   
    37    19    20 1   
    38    19    21 2   
    39    20    73 1   
    40    20    74 1   
    41    20    75 1   
    42    22    23 1   
    43    23    24 1   
    44    23    76 1   
    45    24    25 1   
    46    25    26 1   
    47    25    77 1   
    48    25    78 1   
    49    26    27 1   
    50    26    79 1   
    51    26    80 1   
    52    27    28 1   
    53    27    81 1   
    54    27    82 1   
    55    28    29 1   
    56    28    31 1   
    57    29    30 2   
    58    30    32 1   
    59    31    32 2   
    60    31    83 1   
    61    32    33 1   
    62    33    34 1   
    63    33    84 1   
    64    33    85 1   
    65    34    35 1   
    66    34    42 1   
    67    35    36 1   
    68    35    39 1   
    69    35    86 1   
    70    36    37 1   
    71    36    38 1   
    72    36    87 1   
    73    37    88 1   
    74    37    89 1   
    75    37    90 1   
    76    38    91 1   
    77    38    92 1   
    78    38    93 1   
    79    39    40 1   
    80    39    41 1   
    81    42    43 2   
    82    42    44 2   
    83    42    45 1   
    84    45    46 ar  
    85    45    48 ar  
    86    46    47 ar  
    87    46    94 1   
    88    47    50 ar  
    89    47    95 1   
    90    48    49 ar  
    91    48    96 1   
    92    49    50 ar  
    93    49    97 1   
    94    50    51 1   
    95    51    52 ar  
    96    51    56 ar  
    97    52    53 ar  
    98    52    98 1   
    99    53    54 ar  
   100    53    99 1   
   101    54    55 ar  
   102    54   100 1   
   103    55    56 ar  
   104    55   101 1   
   105    56   102 1   
@<TRIPOS>SUBSTRUCTURE
     1 67M         1 TEMP              0 ****  ****    0 ROOT
