@<TRIPOS>MOLECULE
67N
   19    20     1     0     0
SMALL
No Charge or Current Charge


@<TRIPOS>ATOM
      1 C4           0.0590     1.8800    -0.0560 cc         1 67N      -0.211200
      2 C5           1.0140     0.8250    -0.0230 cc         1 67N      -0.045800
      3 C6           2.4140     0.9020    -0.0260 cc         1 67N      -0.187000
      4 C11         -0.7990    -0.8780     0.0310 c          1 67N       0.584600
      5 C7           2.9140    -0.3750     0.0140 cd         1 67N      -0.154000
      6 C10          0.6230    -0.4710     0.0180 cd         1 67N      -0.253600
      7 N2          -1.7140     0.2100    -0.0030 n          1 67N      -0.280000
      8 C3          -1.2830     1.5480    -0.0460 cd         1 67N      -0.074400
      9 C1          -3.1600    -0.1030     0.0070 c3         1 67N       0.084300
     10 N8           1.8000    -1.2350     0.0420 na         1 67N      -0.077000
     11 O12         -1.1500    -2.0520     0.0680 o          1 67N      -0.580000
     12 H1           0.3930     2.9150    -0.0890 ha         1 67N       0.199000
     13 H2           2.9880     1.8230    -0.0550 ha         1 67N       0.139000
     14 H3           3.9380    -0.7330     0.0260 h4         1 67N       0.147000
     15 H4          -2.0870     2.2790    -0.0690 h4         1 67N       0.195000
     16 H5          -3.4110    -0.6590     0.9190 h1         1 67N       0.050033
     17 H6          -3.7580     0.8170    -0.0220 h1         1 67N       0.050033
     18 H7          -3.4120    -0.7150    -0.8680 h1         1 67N       0.050033
     19 H9           1.8400    -2.2510     0.0740 hn         1 67N       0.365000
@<TRIPOS>BOND
     1     1     2 1   
     2     1     8 2   
     3     1    12 1   
     4     2     3 1   
     5     2     6 2   
     6     3     5 2   
     7     3    13 1   
     8     4     6 1   
     9     4     7 1   
    10     4    11 2   
    11     5    10 1   
    12     5    14 1   
    13     6    10 1   
    14     7     8 1   
    15     7     9 1   
    16     8    15 1   
    17     9    16 1   
    18     9    17 1   
    19     9    18 1   
    20    10    19 1   
@<TRIPOS>SUBSTRUCTURE
     1 67N         1 TEMP              0 ****  ****    0 ROOT
