@<TRIPOS>MOLECULE
67N
   19    20     1     0     0
SMALL
abcg2


@<TRIPOS>ATOM
      1 C4           0.0150     1.9280    -0.0490 cc         1 67N      -0.211200
      2 C5           1.0160     0.9170    -0.0230 cc         1 67N      -0.045800
      3 C6           2.4340     0.9090    -0.0230 cc         1 67N      -0.187000
      4 C11         -0.7540    -0.8450     0.0270 c          1 67N       0.584600
      5 C7           2.8170    -0.4110     0.0120 cd         1 67N      -0.154000
      6 C10          0.6060    -0.4120     0.0130 cd         1 67N      -0.253600
      7 N2          -1.6520     0.2050    -0.0060 n          1 67N      -0.280000
      8 C3          -1.2760     1.5270    -0.0390 cd         1 67N      -0.074400
      9 C1          -3.0660    -0.1390     0.0070 c3         1 67N       0.084300
     10 N8           1.7170    -1.2000     0.0340 na         1 67N      -0.077000
     11 O12         -1.1290    -2.0170     0.0630 o          1 67N      -0.580000
     12 H1           0.2530     2.9810    -0.0770 ha         1 67N       0.199000
     13 H2           3.0940     1.7600    -0.0470 ha         1 67N       0.139000
     14 H3           3.8050    -0.8430     0.0220 h4         1 67N       0.147000
     15 H4          -2.0900     2.2360    -0.0580 h4         1 67N       0.195000
     16 H5          -3.3360    -0.6430     0.9330 h1         1 67N       0.050033
     17 H6          -3.6510     0.7710    -0.0770 h1         1 67N       0.050033
     18 H7          -3.3140    -0.7900    -0.8290 h1         1 67N       0.050033
     19 H9           1.7200    -2.2070     0.0580 hn         1 67N       0.365000
@<TRIPOS>BOND
     1     1     2 1   
     2     1     8 2   
     3     1    12 1   
     4     2     3 1   
     5     2     6 2   
     6     3     5 2   
     7     3    13 1   
     8     4     6 1   
     9     4     7 1   
    10     4    11 2   
    11     5    10 1   
    12     5    14 1   
    13     6    10 1   
    14     7     8 1   
    15     7     9 1   
    16     8    15 1   
    17     9    16 1   
    18     9    17 1   
    19     9    18 1   
    20    10    19 1   
@<TRIPOS>SUBSTRUCTURE
     1 67N         1 TEMP              0 ****  ****    0 ROOT
