@<TRIPOS>MOLECULE
67O
   70    74     1     0     0
SMALL
No Charge or Current Charge


@<TRIPOS>ATOM
      1 C13          7.5830    38.5230    24.0020 c          1 67O       0.600100
      2 C18          8.9850    33.3970    27.2200 ca         1 67O      -0.036000
      3 C17          8.5900    33.7150    28.5370 ca         1 67O      -0.168000
      4 C16          8.1660    35.0230    28.8350 ca         1 67O       0.067000
      5 C15          8.1290    36.0060    27.8330 ca         1 67O      -0.210000
      6 C19          8.9430    34.3850    26.2210 ca         1 67O      -0.180000
      7 C20          7.7850    35.3150    30.1530 ca         1 67O      -0.219000
      8 C21          7.8380    34.3000    31.1210 ca         1 67O       0.381900
      9 C23          8.6010    32.7830    29.5950 ca         1 67O       0.618900
     10 C11          1.6560    34.9610    27.1590 c3         1 67O      -0.085100
     11 C27          5.5980    39.9360    21.7850 ca         1 67O      -0.146300
     12 C1           1.9590    35.5530    25.7610 c3         1 67O      -0.045400
     13 C2           0.9070    36.6300    25.3650 c3         1 67O       0.181600
     14 C3           3.4140    36.0610    25.6550 ca         1 67O      -0.071300
     15 C4           3.9060    36.9530    26.6340 ca         1 67O      -0.087000
     16 C5           5.2060    37.4770    26.5520 ca         1 67O      -0.095000
     17 C6           6.0470    37.1260    25.4820 ca         1 67O      -0.125300
     18 C7           5.5690    36.2310    24.5070 ca         1 67O      -0.095000
     19 C8           4.2680    35.6950    24.5780 ca         1 67O      -0.066300
     20 C9           3.8220    34.7410    23.4700 c3         1 67O      -0.049800
     21 C10          7.4530    37.7250    25.3630 c3         1 67O       0.210800
     22 N12          8.4730    36.6410    25.5100 nu         1 67O      -0.956200
     23 C14          8.5100    35.6850    26.5220 ca         1 67O       0.354000
     24 N22          8.2410    33.0390    30.8460 nb         1 67O      -0.769000
     25 O24          8.1310    38.0170    23.0230 o          1 67O      -0.608100
     26 N25          6.9960    39.8110    23.9010 n          1 67O      -0.399800
     27 C26          6.8150    40.4500    22.5750 c3         1 67O       0.142300
     28 C28          5.5060    40.0980    20.3800 ca         1 67O       0.097100
     29 C29          4.3890    39.5750    19.6880 ca         1 67O       0.156000
     30 C30          3.3640    38.9080    20.3750 ca         1 67O      -0.139000
     31 C31          3.4260    38.7700    21.7700 ca         1 67O      -0.027000
     32 C32          4.5430    39.2790    22.4630 ca         1 67O      -0.082000
     33 N33          2.3900    38.0690    22.4400 ns         1 67O      -0.155000
     34 O34          1.1440    37.0470    24.0020 os         1 67O      -0.470100
     35 C35          2.0200    38.0750    23.7720 c          1 67O       0.647100
     36 O36          2.4090    38.8690    24.6180 o          1 67O      -0.522000
     37 C37          6.5410    40.5610    25.0950 c3         1 67O       0.088300
     38 O38          6.4890    40.7530    19.6780 oh         1 67O      -0.521100
     39 F39          4.2940    39.7090    18.3440 f          1 67O      -0.166000
     40 H56          9.3260    32.3960    26.9630 ha         1 67O       0.107000
     41 H55          7.8050    37.0120    28.0770 ha         1 67O       0.115000
     42 H57          9.2440    34.1340    25.2080 ha         1 67O       0.115000
     43 H58          7.4500    36.3100    30.4310 ha         1 67O       0.119000
     44 H59          7.5450    34.5010    32.1510 h4         1 67O       0.012100
     45 H53          2.4120    34.2160    27.4330 hc         1 67O       0.041700
     46 H52          1.6390    35.7380    27.9320 hc         1 67O       0.041700
     47 H51          0.6780    34.4660    27.1620 hc         1 67O       0.041700
     48 H41          1.8050    34.7180    25.0700 hc         1 67O       0.064700
     49 H42          0.9350    37.4750    26.0660 h1         1 67O       0.069200
     50 H43         -0.0910    36.1790    25.4410 h1         1 67O       0.069200
     51 H44          3.2720    37.2680    27.4580 ha         1 67O       0.117000
     52 H45          5.5510    38.1680    27.3170 ha         1 67O       0.111000
     53 H46          6.2180    35.9530    23.6800 ha         1 67O       0.123000
     54 H49          3.6250    33.7400    23.8700 hc         1 67O       0.045700
     55 H48          2.9110    35.0980    22.9780 hc         1 67O       0.045700
     56 H47          4.5860    34.6340    22.6910 hc         1 67O       0.045700
     57 H50          7.6010    38.4480    26.1750 h1         1 67O       0.077700
     58 H54          8.8930    36.3390    24.6290 hn         1 67O       0.504000
     59 H61          7.7300    40.2850    21.9910 h1         1 67O       0.067200
     60 H60          6.7160    41.5360    22.7050 h1         1 67O       0.067200
     61 H62          2.5190    38.5100    19.8200 ha         1 67O       0.140000
     62 H63          4.6030    39.1370    23.5360 ha         1 67O       0.140000
     63 H64          1.9000    37.3890    21.8750 hn         1 67O       0.171000
     64 H67          7.3690    40.6710    25.8070 h1         1 67O       0.050033
     65 H66          6.1900    41.5620    24.8150 h1         1 67O       0.050033
     66 H65          5.7120    40.0300    25.5790 h1         1 67O       0.050033
     67 H68          7.1350    41.1420    20.3020 ho         1 67O       0.467000
     68 H70          8.6970    30.9340    30.2920 hn         1 67O       0.467500
     69 H69          8.8670    31.0570    28.5850 hn         1 67O       0.467500
     70 N40          8.9570    31.4970    29.4920 nv         1 67O      -1.050900
@<TRIPOS>BOND
     1     1    21 1   
     2     1    25 2   
     3     1    26 1   
     4     2     3 ar  
     5     2     6 ar  
     6     2    40 1   
     7     3     4 ar  
     8     3     9 ar  
     9     4     5 ar  
    10     4     7 ar  
    11     5    23 ar  
    12     5    41 1   
    13     6    23 ar  
    14     6    42 1   
    15     7     8 ar  
    16     7    43 1   
    17     8    24 ar  
    18     8    44 1   
    19     9    24 ar  
    20     9    70 1   
    21    10    12 1   
    22    10    45 1   
    23    10    46 1   
    24    10    47 1   
    25    11    27 1   
    26    11    28 ar  
    27    11    32 ar  
    28    12    13 1   
    29    12    14 1   
    30    12    48 1   
    31    13    34 1   
    32    13    49 1   
    33    13    50 1   
    34    14    15 ar  
    35    14    19 ar  
    36    15    16 ar  
    37    15    51 1   
    38    16    17 ar  
    39    16    52 1   
    40    17    18 ar  
    41    17    21 1   
    42    18    19 ar  
    43    18    53 1   
    44    19    20 1   
    45    20    54 1   
    46    20    55 1   
    47    20    56 1   
    48    21    22 1   
    49    21    57 1   
    50    22    23 1   
    51    22    58 1   
    52    26    27 1   
    53    26    37 1   
    54    27    59 1   
    55    27    60 1   
    56    28    29 ar  
    57    28    38 1   
    58    29    30 ar  
    59    29    39 1   
    60    30    31 ar  
    61    30    61 1   
    62    31    32 ar  
    63    31    33 1   
    64    32    62 1   
    65    33    35 1   
    66    33    63 1   
    67    34    35 1   
    68    35    36 2   
    69    37    64 1   
    70    37    65 1   
    71    37    66 1   
    72    38    67 1   
    73    68    70 1   
    74    69    70 1   
@<TRIPOS>SUBSTRUCTURE
     1 67O         1 TEMP              0 ****  ****    0 ROOT
