@<TRIPOS>MOLECULE
67O
   70    74     1     0     0
SMALL
abcg2


@<TRIPOS>ATOM
      1 C13          7.4490    38.2420    24.0660 c          1 67O       0.600100
      2 C18          9.4460    33.5280    27.2860 ca         1 67O      -0.036000
      3 C17          8.9390    33.7650    28.5860 ca         1 67O      -0.168000
      4 C16          8.1850    34.9500    28.8060 ca         1 67O       0.067000
      5 C15          7.9470    35.8400    27.7410 ca         1 67O      -0.210000
      6 C19          9.2110    34.4030    26.2640 ca         1 67O      -0.180000
      7 C20          7.6980    35.1920    30.1190 ca         1 67O      -0.219000
      8 C21          7.9740    34.2840    31.1010 ca         1 67O       0.381900
      9 C23          9.1420    32.8830    29.6970 ca         1 67O       0.618900
     10 C11          1.2440    35.3910    27.1600 c3         1 67O      -0.085100
     11 C27          5.6890    39.8220    21.8650 ca         1 67O      -0.146300
     12 C1           1.7400    35.7080    25.7450 c3         1 67O      -0.045400
     13 C2           0.8470    36.7920    25.1330 c3         1 67O       0.181600
     14 C3           3.2030    36.1130    25.6860 ca         1 67O      -0.071300
     15 C4           3.7040    37.0480    26.5900 ca         1 67O      -0.087000
     16 C5           5.0130    37.5050    26.5190 ca         1 67O      -0.095000
     17 C6           5.8630    37.0210    25.5320 ca         1 67O      -0.125300
     18 C7           5.3750    36.0740    24.6390 ca         1 67O      -0.095000
     19 C8           4.0620    35.6100    24.6920 ca         1 67O      -0.066300
     20 C9           3.6080    34.5940    23.6740 c3         1 67O      -0.049800
     21 C10          7.3060    37.5090    25.4090 c3         1 67O       0.210800
     22 N12          8.2810    36.4430    25.4150 nu         1 67O      -0.956200
     23 C14          8.4500    35.5890    26.4720 ca         1 67O       0.354000
     24 N22          8.6770    33.1390    30.9110 nb         1 67O      -0.769000
     25 O24          7.9140    37.6410    23.0970 o          1 67O      -0.608100
     26 N25          6.9910    39.5110    23.9700 n          1 67O      -0.399800
     27 C26          6.9550    40.1180    22.6470 c3         1 67O       0.142300
     28 C28          5.5560    40.3340    20.5690 ca         1 67O       0.097100
     29 C29          4.3990    40.0340    19.8560 ca         1 67O       0.156000
     30 C30          3.3740    39.2730    20.3780 ca         1 67O      -0.139000
     31 C31          3.5150    38.7670    21.6670 ca         1 67O      -0.027000
     32 C32          4.6710    39.0380    22.3910 ca         1 67O      -0.082000
     33 N33          2.4990    37.9480    22.2120 ns         1 67O      -0.155000
     34 O34          1.2000    37.0250    23.7530 os         1 67O      -0.470100
     35 C35          2.0350    38.0540    23.4850 c          1 67O       0.647100
     36 O36          2.3070    38.9480    24.2630 o          1 67O      -0.522000
     37 C37          6.3940    40.2800    25.0580 c3         1 67O       0.088300
     38 O38          6.4920    41.1040    19.9460 oh         1 67O      -0.521100
     39 F39          4.2750    40.5300    18.6010 f          1 67O      -0.166000
     40 H56         10.0400    32.6460    27.0820 ha         1 67O       0.107000
     41 H55          7.3650    36.7290    27.9390 ha         1 67O       0.115000
     42 H57          9.6060    34.2070    25.2740 ha         1 67O       0.115000
     43 H58          7.1230    36.0830    30.3320 ha         1 67O       0.119000
     44 H59          7.6190    34.4470    32.1130 h4         1 67O       0.012100
     45 H53          1.8640    34.6180    27.6160 hc         1 67O       0.041700
     46 H52          1.2660    36.2690    27.8060 hc         1 67O       0.041700
     47 H51          0.2150    35.0280    27.1250 hc         1 67O       0.041700
     48 H41          1.6070    34.8110    25.1410 hc         1 67O       0.064700
     49 H42          0.9230    37.7260    25.6880 h1         1 67O       0.069200
     50 H43         -0.1910    36.4630    25.1160 h1         1 67O       0.069200
     51 H44          3.0550    37.4480    27.3590 ha         1 67O       0.117000
     52 H45          5.3690    38.2350    27.2350 ha         1 67O       0.111000
     53 H46          6.0320    35.6860    23.8690 ha         1 67O       0.123000
     54 H49          3.2440    33.6810    24.1520 hc         1 67O       0.045700
     55 H48          2.7960    34.9810    23.0580 hc         1 67O       0.045700
     56 H47          4.4340    34.3240    23.0170 hc         1 67O       0.045700
     57 H50          7.5180    38.1880    26.2340 h1         1 67O       0.077700
     58 H54          8.5240    36.1050    24.4950 hn         1 67O       0.504000
     59 H61          7.8210    39.7650    22.0870 h1         1 67O       0.067200
     60 H60          7.0640    41.1970    22.7810 h1         1 67O       0.067200
     61 H62          2.4880    39.0840    19.7870 ha         1 67O       0.140000
     62 H63          4.7770    38.6150    23.3780 ha         1 67O       0.140000
     63 H64          2.1320    37.1960    21.6480 hn         1 67O       0.171000
     64 H67          6.7920    39.9740    26.0190 h1         1 67O       0.050033
     65 H66          6.6410    41.3300    24.9100 h1         1 67O       0.050033
     66 H65          5.3080    40.1740    25.0760 h1         1 67O       0.050033
     67 H68          7.2550    41.2580    20.5160 ho         1 67O       0.467000
     68 H70          9.7870    31.0760    30.3110 hn         1 67O       0.467500
     69 H69          9.9200    31.3040    28.6420 hn         1 67O       0.467500
     70 N40          9.8830    31.7340    29.5520 nv         1 67O      -1.050900
@<TRIPOS>BOND
     1     1    21 1   
     2     1    25 2   
     3     1    26 1   
     4     2     3 ar  
     5     2     6 ar  
     6     2    40 1   
     7     3     4 ar  
     8     3     9 ar  
     9     4     5 ar  
    10     4     7 ar  
    11     5    23 ar  
    12     5    41 1   
    13     6    23 ar  
    14     6    42 1   
    15     7     8 ar  
    16     7    43 1   
    17     8    24 ar  
    18     8    44 1   
    19     9    24 ar  
    20     9    70 1   
    21    10    12 1   
    22    10    45 1   
    23    10    46 1   
    24    10    47 1   
    25    11    27 1   
    26    11    28 ar  
    27    11    32 ar  
    28    12    13 1   
    29    12    14 1   
    30    12    48 1   
    31    13    34 1   
    32    13    49 1   
    33    13    50 1   
    34    14    15 ar  
    35    14    19 ar  
    36    15    16 ar  
    37    15    51 1   
    38    16    17 ar  
    39    16    52 1   
    40    17    18 ar  
    41    17    21 1   
    42    18    19 ar  
    43    18    53 1   
    44    19    20 1   
    45    20    54 1   
    46    20    55 1   
    47    20    56 1   
    48    21    22 1   
    49    21    57 1   
    50    22    23 1   
    51    22    58 1   
    52    26    27 1   
    53    26    37 1   
    54    27    59 1   
    55    27    60 1   
    56    28    29 ar  
    57    28    38 1   
    58    29    30 ar  
    59    29    39 1   
    60    30    31 ar  
    61    30    61 1   
    62    31    32 ar  
    63    31    33 1   
    64    32    62 1   
    65    33    35 1   
    66    33    63 1   
    67    34    35 1   
    68    35    36 2   
    69    37    64 1   
    70    37    65 1   
    71    37    66 1   
    72    38    67 1   
    73    68    70 1   
    74    69    70 1   
@<TRIPOS>SUBSTRUCTURE
     1 67O         1 TEMP              0 ****  ****    0 ROOT
