@<TRIPOS>MOLECULE
67P
   48    50     1     0     0
SMALL
No Charge or Current Charge


@<TRIPOS>ATOM
      1 C01        -10.6990    -0.6670     0.2310 ca         1 67P      -0.086000
      2 C02        -10.0000     0.3400    -0.4520 ca         1 67P      -0.119500
      3 C03         -8.5980     0.2860    -0.5560 ca         1 67P      -0.069500
      4 C04         -7.8730    -0.7840     0.0280 ca         1 67P      -0.150600
      5 C05         -8.5940    -1.7910     0.7120 ca         1 67P      -0.069500
      6 C06         -9.9950    -1.7320     0.8120 ca         1 67P      -0.119500
      7 C07         -6.3610    -0.8820    -0.0600 c          1 67P       0.619700
      8 O08         -5.7430    -1.8260     0.4180 o          1 67P      -0.575100
      9 N09         -5.7020     0.1460    -0.7210 ns         1 67P      -0.377500
     10 N10         -4.2760     0.2710    -0.7830 ns         1 67P      -0.365500
     11 C11         -3.4840     0.6360     0.2990 c          1 67P       0.615700
     12 O12         -3.9840     0.9980     1.3570 o          1 67P      -0.563100
     13 C13         -1.9800     0.5810     0.0980 ca         1 67P      -0.139600
     14 C14         -1.3920     0.2020    -1.1350 ca         1 67P      -0.071500
     15 C15          0.0060     0.1640    -1.2800 ca         1 67P      -0.100500
     16 C16          0.8470     0.5010    -0.2030 ca         1 67P      -0.081300
     17 C17          0.2720     0.8800     1.0220 ca         1 67P      -0.100500
     18 C18         -1.1250     0.9210     1.1720 ca         1 67P      -0.071500
     19 C19          2.3610     0.4580    -0.3580 c3         1 67P       0.246100
     20 N20          2.8870     1.8210    -0.5080 n7         1 67P      -0.866300
     21 S21          4.5030     1.9950    -0.8670 sy         1 67P       1.155600
     22 O22          4.6710     1.4750    -2.2240 o          1 67P      -0.525500
     23 O23          4.8310     3.3740    -0.5000 o          1 67P      -0.525500
     24 C24          5.2510     0.8820     0.3290 ca         1 67P      -0.324500
     25 C25          5.3420     1.2700     1.6820 ca         1 67P       0.015000
     26 C26          5.9170     0.3980     2.6210 ca         1 67P      -0.170000
     27 C27          6.3980    -0.8570     2.2150 ca         1 67P       0.234000
     28 C28          6.3090    -1.2500     0.8660 ca         1 67P       0.041000
     29 C29          5.7360    -0.3810    -0.0780 ca         1 67P       0.011000
     30 Cl           6.9080    -2.8250     0.3440 cl         1 67P      -0.154000
     31 F31          6.9480    -1.6850     3.1330 f          1 67P      -0.149000
     32 H1         -11.7830    -0.6220     0.3090 ha         1 67P       0.116000
     33 H2         -10.5450     1.1660    -0.9040 ha         1 67P       0.118500
     34 H3          -8.0960     1.0850    -1.0950 ha         1 67P       0.125000
     35 H4          -8.0700    -2.6260     1.1710 ha         1 67P       0.125000
     36 H5         -10.5340    -2.5140     1.3420 ha         1 67P       0.118500
     37 H6          -6.2480     0.9340    -1.0560 hn         1 67P       0.343500
     38 H7          -3.8200    -0.0700    -1.6230 hn         1 67P       0.335500
     39 H8          -2.0010    -0.0650    -1.9940 ha         1 67P       0.129000
     40 H9           0.4350    -0.1300    -2.2360 ha         1 67P       0.124500
     41 H10          0.9100     1.1490     1.8610 ha         1 67P       0.124500
     42 H11         -1.5410     1.2180     2.1320 ha         1 67P       0.129000
     43 H12          2.7860    -0.0340     0.5280 h1         1 67P       0.060200
     44 H13          2.6160    -0.1620    -1.2290 h1         1 67P       0.060200
     45 H14          2.4640     2.2450    -1.3300 hn         1 67P       0.487000
     46 H15          4.9640     2.2400     2.0060 ha         1 67P       0.147000
     47 H16          5.9880     0.6910     3.6650 ha         1 67P       0.143000
     48 H17          5.6700    -0.6960    -1.1180 ha         1 67P       0.152000
@<TRIPOS>BOND
     1     1     2 ar  
     2     1     6 ar  
     3     1    32 1   
     4     2     3 ar  
     5     2    33 1   
     6     3     4 ar  
     7     3    34 1   
     8     4     5 ar  
     9     4     7 1   
    10     5     6 ar  
    11     5    35 1   
    12     6    36 1   
    13     7     8 2   
    14     7     9 1   
    15     9    10 1   
    16     9    37 1   
    17    10    11 1   
    18    10    38 1   
    19    11    12 2   
    20    11    13 1   
    21    13    14 ar  
    22    13    18 ar  
    23    14    15 ar  
    24    14    39 1   
    25    15    16 ar  
    26    15    40 1   
    27    16    17 ar  
    28    16    19 1   
    29    17    18 ar  
    30    17    41 1   
    31    18    42 1   
    32    19    20 1   
    33    19    43 1   
    34    19    44 1   
    35    20    21 1   
    36    20    45 1   
    37    21    22 2   
    38    21    23 2   
    39    21    24 1   
    40    24    25 ar  
    41    24    29 ar  
    42    25    26 ar  
    43    25    46 1   
    44    26    27 ar  
    45    26    47 1   
    46    27    28 ar  
    47    27    31 1   
    48    28    29 ar  
    49    28    30 1   
    50    29    48 1   
@<TRIPOS>SUBSTRUCTURE
     1 67P         1 TEMP              0 ****  ****    0 ROOT
