@<TRIPOS>MOLECULE
67P
   48    50     1     0     0
SMALL
abcg2


@<TRIPOS>ATOM
      1 C01        -10.5380    -0.6780    -0.4800 ca         1 67P      -0.086000
      2 C02         -9.5670    -0.5440    -1.4620 ca         1 67P      -0.119500
      3 C03         -8.2290    -0.4450    -1.1090 ca         1 67P      -0.069500
      4 C04         -7.8550    -0.4720     0.2330 ca         1 67P      -0.150600
      5 C05         -8.8360    -0.5850     1.2160 ca         1 67P      -0.069500
      6 C06        -10.1700    -0.6980     0.8600 ca         1 67P      -0.119500
      7 C07         -6.4360    -0.3410     0.6690 c          1 67P       0.619700
      8 O08         -6.1220     0.1640     1.7300 o          1 67P      -0.575100
      9 N09         -5.5200    -0.8490    -0.1930 ns         1 67P      -0.377500
     10 N10         -4.1900    -0.6930     0.0290 ns         1 67P      -0.365500
     11 C11         -3.5860     0.4940    -0.2440 c          1 67P       0.615700
     12 O12         -4.1850     1.4380    -0.7210 o          1 67P      -0.563100
     13 C13         -2.1310     0.5480     0.0730 ca         1 67P      -0.139600
     14 C14         -1.3200    -0.5810     0.0610 ca         1 67P      -0.071500
     15 C15          0.0370    -0.4680     0.3320 ca         1 67P      -0.100500
     16 C16          0.5990     0.7660     0.6290 ca         1 67P      -0.081300
     17 C17         -0.2150     1.8970     0.6340 ca         1 67P      -0.100500
     18 C18         -1.5640     1.7920     0.3500 ca         1 67P      -0.071500
     19 C19          2.0660     0.8760     0.9400 c3         1 67P       0.246100
     20 N20          2.6910     1.8080     0.0050 n7         1 67P      -0.866300
     21 S21          4.2160     2.3460     0.3060 sy         1 67P       1.155600
     22 O22          4.5710     3.1980    -0.8140 o          1 67P      -0.525500
     23 O23          4.2280     2.8620     1.6630 o          1 67P      -0.525500
     24 C24          5.2710     0.9190     0.2690 ca         1 67P      -0.324500
     25 C25          5.5790     0.2590     1.4490 ca         1 67P       0.015000
     26 C26          6.3610    -0.8840     1.4030 ca         1 67P      -0.170000
     27 C27          6.8200    -1.3370     0.1840 ca         1 67P       0.234000
     28 C28          6.5140    -0.6740    -0.9980 ca         1 67P       0.041000
     29 C29          5.7330     0.4660    -0.9600 ca         1 67P       0.011000
     30 CL           7.1180    -1.2820    -2.4860 cl         1 67P      -0.154000
     31 F31          7.5730    -2.4300     0.1280 f          1 67P      -0.149000
     32 H1         -11.5810    -0.7600    -0.7560 ha         1 67P       0.116000
     33 H2          -9.8490    -0.5130    -2.5060 ha         1 67P       0.118500
     34 H3          -7.4910    -0.3170    -1.8910 ha         1 67P       0.125000
     35 H4          -8.5540    -0.5940     2.2610 ha         1 67P       0.125000
     36 H5         -10.9250    -0.7980     1.6290 ha         1 67P       0.118500
     37 H6          -5.7860    -1.3160    -1.0460 hn         1 67P       0.343500
     38 H7          -3.7440    -1.3840     0.6140 hn         1 67P       0.335500
     39 H8          -1.7200    -1.5550    -0.1900 ha         1 67P       0.129000
     40 H9           0.6620    -1.3520     0.3050 ha         1 67P       0.124500
     41 H10          0.2090     2.8670     0.8610 ha         1 67P       0.124500
     42 H11         -2.1830     2.6780     0.3530 ha         1 67P       0.129000
     43 H12          2.1960     1.2630     1.9510 h1         1 67P       0.060200
     44 H13          2.5270    -0.1150     0.9040 h1         1 67P       0.060200
     45 H14          2.5570     1.5640    -0.9710 hn         1 67P       0.487000
     46 H15          5.2260     0.6220     2.4040 ha         1 67P       0.147000
     47 H16          6.6170    -1.4170     2.3090 ha         1 67P       0.143000
     48 H17          5.5030     0.9860    -1.8800 ha         1 67P       0.152000
@<TRIPOS>BOND
     1     1     2 ar  
     2     1     6 ar  
     3     1    32 1   
     4     2     3 ar  
     5     2    33 1   
     6     3     4 ar  
     7     3    34 1   
     8     4     5 ar  
     9     4     7 1   
    10     5     6 ar  
    11     5    35 1   
    12     6    36 1   
    13     7     8 2   
    14     7     9 1   
    15     9    10 1   
    16     9    37 1   
    17    10    11 1   
    18    10    38 1   
    19    11    12 2   
    20    11    13 1   
    21    13    14 ar  
    22    13    18 ar  
    23    14    15 ar  
    24    14    39 1   
    25    15    16 ar  
    26    15    40 1   
    27    16    17 ar  
    28    16    19 1   
    29    17    18 ar  
    30    17    41 1   
    31    18    42 1   
    32    19    20 1   
    33    19    43 1   
    34    19    44 1   
    35    20    21 1   
    36    20    45 1   
    37    21    22 2   
    38    21    23 2   
    39    21    24 1   
    40    24    25 ar  
    41    24    29 ar  
    42    25    26 ar  
    43    25    46 1   
    44    26    27 ar  
    45    26    47 1   
    46    27    28 ar  
    47    27    31 1   
    48    28    29 ar  
    49    28    30 1   
    50    29    48 1   
@<TRIPOS>SUBSTRUCTURE
     1 67P         1 TEMP              0 ****  ****    0 ROOT
