@<TRIPOS>MOLECULE
67Q
   49    51     1     0     0
SMALL
No Charge or Current Charge


@<TRIPOS>ATOM
      1 C10          0.7280     1.6640     0.6300 ca         1 67Q       0.297300
      2 C11         -0.0910     0.5610     0.2300 ca         1 67Q       0.341300
      3 C13         -1.9900     1.8600     0.5620 ca         1 67Q       0.253500
      4 C14         -1.1670     2.9510     0.9500 ca         1 67Q       0.338900
      5 C16         -3.5010     2.0490     0.5540 c          1 67Q       0.505600
      6 C22         -7.2480    -2.7410     0.0170 ce         1 67Q       0.594600
      7 C24         -7.1050    -0.8290    -1.3600 c5         1 67Q       0.154000
      8 C25         -7.6730    -4.1000     0.5220 c3         1 67Q      -0.126400
      9 C26          0.4870    -0.7850    -0.1900 c3         1 67Q      -0.144400
     10 C01          5.3300    -2.4330     0.6490 ca         1 67Q       0.187000
     11 C02          4.7650    -2.1930    -0.6170 ca         1 67Q       0.112000
     12 C03          4.5350    -0.8760    -1.0450 ca         1 67Q      -0.030000
     13 C04          4.8700     0.2080    -0.2040 ca         1 67Q      -0.269500
     14 C05          5.4350    -0.0360     1.0670 ca         1 67Q      -0.005000
     15 C06          5.6640    -1.3580     1.4890 ca         1 67Q      -0.155000
     16 S07          4.5430     1.8910    -0.7500 sy         1 67Q       1.142600
     17 N08          2.8820     1.9430    -0.6320 n7         1 67Q      -0.878300
     18 C09          2.2580     1.5650     0.6640 c3         1 67Q       0.153500
     19 N12         -1.4490     0.6490     0.1970 nb         1 67Q      -0.655000
     20 N15          0.1930     2.8680     0.9880 nb         1 67Q      -0.642000
     21 O17         -4.0510     3.1000     0.8700 o          1 67Q      -0.612100
     22 N18         -4.2330     0.9480     0.1640 ns         1 67Q      -0.478900
     23 C19         -5.6690     0.8860     0.0820 c3         1 67Q       0.195200
     24 C20         -5.9960    -0.5130    -0.3630 c2         1 67Q      -0.728400
     25 S21         -5.9620    -1.9100     0.9710 sx         1 67Q       0.002400
     26 N23         -7.6960    -2.1920    -1.0810 n2         1 67Q      -0.500900
     27 O27          5.0510     2.8630     0.2190 o          1 67Q      -0.532500
     28 O28          4.8200     1.9840    -2.1850 o          1 67Q      -0.532500
     29 F30          5.5540    -3.7000     1.0680 f          1 67Q      -0.148000
     30 H1          -1.6010     3.9080     1.2360 h4         1 67Q       0.059100
     31 H3          -7.9040    -0.0740    -1.3170 h1         1 67Q       0.077200
     32 H5          -8.0450    -4.0360     1.5500 hc         1 67Q       0.065033
     33 H6          -8.4720    -4.5220    -0.0980 hc         1 67Q       0.065033
     34 H7          -6.8310    -4.8010     0.5080 hc         1 67Q       0.065033
     35 H8           0.9500    -1.2940     0.6620 hc         1 67Q       0.058367
     36 H9          -0.2840    -1.4510    -0.5950 hc         1 67Q       0.058367
     37 H10          1.2510    -0.6590    -0.9660 hc         1 67Q       0.058367
     38 H11          4.0900    -0.7010    -2.0240 ha         1 67Q       0.158000
     39 H12          5.6940     0.7900     1.7300 ha         1 67Q       0.150000
     40 H13          6.0980    -1.5510     2.4670 ha         1 67Q       0.143000
     41 H14          2.7070     2.9320    -0.8110 hn         1 67Q       0.494000
     42 H15          2.6280     2.2140     1.4710 h1         1 67Q       0.070200
     43 H16          2.5310     0.5400     0.9470 h1         1 67Q       0.070200
     44 H17         -3.7100     0.1170    -0.0820 hn         1 67Q       0.344500
     45 H18         -6.1060     1.1040     1.0670 h1         1 67Q       0.048200
     46 H19         -6.0270     1.6300    -0.6450 h1         1 67Q       0.048200
     47 H2          -6.9550    -1.3690     1.7900 hs         1 67Q       0.201000
     48 H4          -6.7200    -0.8070    -2.3910 h1         1 67Q       0.077200
     49 F29          4.4370    -3.2270    -1.4280 f          1 67Q      -0.153000
@<TRIPOS>BOND
     1     1     2 ar  
     2     1    18 1   
     3     1    20 ar  
     4     2     9 1   
     5     2    19 ar  
     6     3     4 ar  
     7     3     5 1   
     8     3    19 ar  
     9     4    20 ar  
    10     4    30 1   
    11     5    21 2   
    12     5    22 1   
    13     6     8 1   
    14     6    25 1   
    15     6    26 2   
    16     7    24 1   
    17     7    26 1   
    18     7    31 1   
    19     7    48 1   
    20     8    32 1   
    21     8    33 1   
    22     8    34 1   
    23     9    35 1   
    24     9    36 1   
    25     9    37 1   
    26    10    11 ar  
    27    10    15 ar  
    28    10    29 1   
    29    11    12 ar  
    30    11    49 1   
    31    12    13 ar  
    32    12    38 1   
    33    13    14 ar  
    34    13    16 1   
    35    14    15 ar  
    36    14    39 1   
    37    15    40 1   
    38    16    17 1   
    39    16    27 2   
    40    16    28 2   
    41    17    18 1   
    42    17    41 1   
    43    18    42 1   
    44    18    43 1   
    45    22    23 1   
    46    22    44 1   
    47    23    24 1   
    48    23    45 1   
    49    23    46 1   
    50    24    25 2   
    51    25    47 1   
@<TRIPOS>SUBSTRUCTURE
     1 67Q         1 TEMP              0 ****  ****    0 ROOT
