@<TRIPOS>MOLECULE
67Q
   49    51     1     0     0
SMALL
bcc


@<TRIPOS>ATOM
      1 C10          0.6340     1.9280     0.8420 ca         1 67Q       0.297300
      2 C11         -0.0610     0.8330     0.2950 ca         1 67Q       0.341300
      3 C13         -1.9910     2.0470     0.4220 ca         1 67Q       0.253500
      4 C14         -1.3010     3.1160     0.9670 ca         1 67Q       0.338900
      5 C16         -3.4710     2.1360     0.1870 c          1 67Q       0.572600
      6 C22         -6.6010    -2.7870     0.2310 ce         1 67Q       0.594600
      7 C24         -7.0670    -1.0680    -1.1730 c5         1 67Q       0.154000
      8 C25         -6.5720    -4.0810     0.9470 c3         1 67Q      -0.126400
      9 C26          0.6210    -0.4440    -0.0700 c3         1 67Q      -0.144400
     10 C01          4.5120    -2.7800     0.1790 ca         1 67Q       0.151900
     11 C02          4.1310    -2.2070    -1.0280 ca         1 67Q       0.076900
     12 C03          4.1050    -0.8410    -1.1780 ca         1 67Q      -0.048000
     13 C04          4.4660    -0.0540    -0.0890 ca         1 67Q      -0.269500
     14 C05          4.8550    -0.6120     1.1170 ca         1 67Q      -0.023000
     15 C06          4.8750    -1.9930     1.2500 ca         1 67Q      -0.173000
     16 S07          4.4180     1.7060    -0.2760 sy         1 67Q       1.284200
     17 N08          2.7880     1.9870    -0.2350 n7         1 67Q      -0.823100
     18 C09          2.1190     1.8920     1.0620 c3         1 67Q       0.153500
     19 N12         -1.3650     0.9220     0.0980 nb         1 67Q      -0.655000
     20 N15          0.0090     3.0440     1.1710 nb         1 67Q      -0.642000
     21 O17         -4.0860     3.1540     0.4820 o          1 67Q      -0.612100
     22 N18         -4.0080     1.0410    -0.3480 ns         1 67Q      -0.545900
     23 C19         -5.4170     0.8680    -0.6500 c3         1 67Q       0.195200
     24 C20         -5.8030    -0.5680    -0.5390 c2         1 67Q      -0.728400
     25 S21         -5.6090    -1.3900     0.9400 sx         1 67Q       0.002400
     26 N23         -7.2370    -2.4610    -0.7920 n2         1 67Q      -0.500900
     27 O27          5.1020     2.2880     0.8700 o          1 67Q      -0.603300
     28 O28          4.8480     2.0660    -1.6160 o          1 67Q      -0.603300
     29 F30          4.5230    -4.1050     0.2810 f          1 67Q      -0.112900
     30 H1          -1.8000     4.0350     1.2430 h4         1 67Q       0.059100
     31 H3          -8.0000    -0.5660    -0.8640 h1         1 67Q       0.077200
     32 H5          -6.8790    -3.9460     1.9860 hc         1 67Q       0.065033
     33 H6          -7.2410    -4.7930     0.4700 hc         1 67Q       0.065033
     34 H7          -5.5600    -4.4870     0.9570 hc         1 67Q       0.065033
     35 H8           1.1380    -0.8770     0.7870 hc         1 67Q       0.058367
     36 H9          -0.1070    -1.1650    -0.4330 hc         1 67Q       0.058367
     37 H10          1.3670    -0.2800    -0.8470 hc         1 67Q       0.058367
     38 H11          3.8020    -0.4120    -2.1250 ha         1 67Q       0.176000
     39 H12          5.1450     0.0060     1.9540 ha         1 67Q       0.168000
     40 H13          5.1750    -2.4540     2.1810 ha         1 67Q       0.161000
     41 H14          2.5670     2.8410    -0.7410 hn         1 67Q       0.438800
     42 H15          2.3980     2.7020     1.7380 h1         1 67Q       0.070200
     43 H16          2.4030     0.9470     1.5320 h1         1 67Q       0.070200
     44 H17         -3.3890     0.2790    -0.5830 hn         1 67Q       0.344500
     45 H18         -5.9820     1.5520    -0.0070 h1         1 67Q       0.048200
     46 H19         -5.6220     1.1880    -1.6790 h1         1 67Q       0.048200
     47 H2          -6.5840    -1.1580     1.9220 hs         1 67Q       0.201000
     48 H4          -7.0230    -0.9790    -2.2620 h1         1 67Q       0.077200
     49 F29          3.7920    -3.0030    -2.0410 f          1 67Q      -0.117900
@<TRIPOS>BOND
     1     1     2 ar  
     2     1    18 1   
     3     1    20 ar  
     4     2     9 1   
     5     2    19 ar  
     6     3     4 ar  
     7     3     5 1   
     8     3    19 ar  
     9     4    20 ar  
    10     4    30 1   
    11     5    21 2   
    12     5    22 1   
    13     6     8 1   
    14     6    25 1   
    15     6    26 2   
    16     7    24 1   
    17     7    26 1   
    18     7    31 1   
    19     7    48 1   
    20     8    32 1   
    21     8    33 1   
    22     8    34 1   
    23     9    35 1   
    24     9    36 1   
    25     9    37 1   
    26    10    11 ar  
    27    10    15 ar  
    28    10    29 1   
    29    11    12 ar  
    30    11    49 1   
    31    12    13 ar  
    32    12    38 1   
    33    13    14 ar  
    34    13    16 1   
    35    14    15 ar  
    36    14    39 1   
    37    15    40 1   
    38    16    17 1   
    39    16    27 2   
    40    16    28 2   
    41    17    18 1   
    42    17    41 1   
    43    18    42 1   
    44    18    43 1   
    45    22    23 1   
    46    22    44 1   
    47    23    24 1   
    48    23    45 1   
    49    23    46 1   
    50    24    25 2   
    51    25    47 1   
@<TRIPOS>SUBSTRUCTURE
     1 67Q         1 TEMP              0 ****  ****    0 ROOT
