@<TRIPOS>MOLECULE
67R
   44    46     1     0     0
SMALL
bcc


@<TRIPOS>ATOM
      1 C01         -6.5660     0.6510     1.6000 ca         1 67R       0.199900
      2 C02         -6.0910     1.5530     0.6570 ca         1 67R      -0.050600
      3 C03         -5.1880     1.1270    -0.2990 ca         1 67R      -0.006000
      4 C04         -4.7790    -0.2000    -0.2920 ca         1 67R      -0.329500
      5 C05         -5.2590    -1.1010     0.6480 ca         1 67R      -0.005000
      6 C06         -6.1620    -0.6670     1.6050 ca         1 67R      -0.188000
      7 C07         -1.6750    -1.0930     0.3570 c3         1 67R       0.158500
      8 C08         -0.1740    -1.1430     0.3990 ca         1 67R       0.304300
      9 C09          0.5430    -0.5360     1.4250 ca         1 67R       0.290900
     10 C10          2.4820    -1.2450     0.5000 ca         1 67R       0.239500
     11 C11          1.7670    -1.8450    -0.5320 ca         1 67R       0.351900
     12 C12          3.9770    -1.3330     0.5280 c          1 67R       0.576600
     13 C13          6.0000    -0.7170     1.7250 c3         1 67R       0.187300
     14 C14          6.7070     0.2630     0.8450 cc         1 67R      -0.196700
     15 C15          7.3800     1.3810     1.2190 cd         1 67R       0.349200
     16 C16          7.7440     1.5640    -0.9400 cc         1 67R       0.427700
     17 C17          8.2130     2.1200    -2.2380 c3         1 67R      -0.131400
     18 N18         -2.1020    -0.4060    -0.8530 n7         1 67R      -0.804100
     19 N19          1.8640    -0.5910     1.4710 nb         1 67R      -0.637000
     20 N20          0.4480    -1.7900    -0.5750 nb         1 67R      -0.609000
     21 O21          4.5880    -1.9360    -0.3430 o          1 67R      -0.596100
     22 N22          4.5650    -0.7160     1.5560 ns         1 67R      -0.550900
     23 S23          6.8080     0.1090    -0.8710 ss         1 67R      -0.127300
     24 N24          7.9570     2.1070     0.2160 nd         1 67R      -0.648000
     25 S25         -3.5840    -0.7310    -1.4920 sy         1 67R       1.305200
     26 O26         -3.6950    -2.1720    -1.6080 o          1 67R      -0.591800
     27 O27         -3.7080     0.1220    -2.6580 o          1 67R      -0.591800
     28 CL          -6.6410     3.1790     0.6910 cl         1 67R      -0.060400
     29 F29         -7.4350     1.0720     2.5100 f          1 67R      -0.112900
     30 H1          -4.8210     1.8280    -1.0370 ha         1 67R       0.170000
     31 H2          -4.9480    -2.1360     0.6420 ha         1 67R       0.163000
     32 H3          -6.5540    -1.3490     2.3470 ha         1 67R       0.162000
     33 H4          -2.0470    -2.1180     0.3350 h1         1 67R       0.067200
     34 H5          -2.0640    -0.6170     1.2610 h1         1 67R       0.067200
     35 H6           0.0380     0.0010     2.2190 h4         1 67R       0.031100
     36 H7           2.2730    -2.3770    -1.3270 h4         1 67R       0.062100
     37 H8           6.3820    -1.7260     1.5620 h1         1 67R       0.066700
     38 H9           6.2100    -0.4600     2.7620 h1         1 67R       0.066700
     39 H10          7.4790     1.7110     2.2440 h4         1 67R       0.036100
     40 H11          7.3800     2.5150    -2.8200 hc         1 67R       0.058700
     41 H12          8.9170     2.9300    -2.0560 hc         1 67R       0.058700
     42 H13          8.7070     1.3610    -2.8450 hc         1 67R       0.058700
     43 H14         -1.8880     0.5860    -0.8660 hn         1 67R       0.429800
     44 H15          3.9920    -0.2020     2.2070 hn         1 67R       0.344500
@<TRIPOS>BOND
     1     1     2 ar  
     2     1     6 ar  
     3     1    29 1   
     4     2     3 ar  
     5     2    28 1   
     6     3     4 ar  
     7     3    30 1   
     8     4     5 ar  
     9     4    25 1   
    10     5     6 ar  
    11     5    31 1   
    12     6    32 1   
    13     7     8 1   
    14     7    18 1   
    15     7    33 1   
    16     7    34 1   
    17     8     9 ar  
    18     8    20 ar  
    19     9    19 ar  
    20     9    35 1   
    21    10    11 ar  
    22    10    12 1   
    23    10    19 ar  
    24    11    20 ar  
    25    11    36 1   
    26    12    21 2   
    27    12    22 1   
    28    13    14 1   
    29    13    22 1   
    30    13    37 1   
    31    13    38 1   
    32    14    15 2   
    33    14    23 1   
    34    15    24 1   
    35    15    39 1   
    36    16    17 1   
    37    16    23 1   
    38    16    24 2   
    39    17    40 1   
    40    17    41 1   
    41    17    42 1   
    42    18    25 1   
    43    18    43 1   
    44    22    44 1   
    45    25    26 2   
    46    25    27 2   
@<TRIPOS>SUBSTRUCTURE
     1 67R         1 TEMP              0 ****  ****    0 ROOT
