@<TRIPOS>MOLECULE
67R
   44    46     1     0     0
SMALL
No Charge or Current Charge


@<TRIPOS>ATOM
      1 C01         -6.3020    -0.4220     2.0960 ca         1 67R       0.235000
      2 C02         -5.9490     0.8120     1.5170 ca         1 67R       0.041000
      3 C03         -5.2200     0.8350     0.3150 ca         1 67R       0.012000
      4 C04         -4.8450    -0.3770    -0.3060 ca         1 67R      -0.329500
      5 C05         -5.2010    -1.6090     0.2790 ca         1 67R       0.013000
      6 C06         -5.9300    -1.6270     1.4800 ca         1 67R      -0.170000
      7 C07         -1.8460    -0.0590    -0.0880 c3         1 67R       0.158500
      8 C08         -0.4080    -0.4560     0.2680 ca         1 67R       0.304300
      9 C09          0.6880     0.3660    -0.1110 ca         1 67R       0.290900
     10 C10          2.1610    -1.1200     0.8900 ca         1 67R       0.239500
     11 C11          1.0610    -1.9370     1.2670 ca         1 67R       0.351900
     12 C12          3.5660    -1.5600     1.2730 c          1 67R       0.509600
     13 C13          5.9970    -0.9420     1.1260 c3         1 67R       0.187300
     14 C14          6.8290     0.1680     0.5580 cc         1 67R      -0.276300
     15 C15          7.3840     1.2290     1.2380 cd         1 67R       0.283900
     16 C16          8.1030     1.6970    -0.8080 cc         1 67R       0.427700
     17 C17          8.8000     2.4320    -1.9140 c3         1 67R      -0.131400
     18 N18         -2.3810    -0.7660    -1.2870 n7         1 67R      -0.859300
     19 N19          1.9780     0.0510     0.1910 nb         1 67R      -0.637000
     20 N20         -0.2290    -1.6160     0.9650 nb         1 67R      -0.609000
     21 O21          3.8050    -2.5900     1.8940 o          1 67R      -0.596100
     22 N22          4.5820    -0.7170     0.8730 ns         1 67R      -0.483900
     23 S23          7.2170     0.2310    -1.1390 ss         1 67R       0.017600
     24 N24          8.1150     2.1090     0.4530 nd         1 67R      -0.648000
     25 S25         -3.9030    -0.3580    -1.8360 sy         1 67R       1.163600
     26 O26         -4.3260    -1.4880    -2.6650 o          1 67R      -0.521000
     27 O27         -3.7910     1.0070    -2.3520 o          1 67R      -0.521000
     28 Cl          -6.4080     2.3330     2.2830 cl         1 67R      -0.152000
     29 F29         -7.0020    -0.4570     3.2530 f          1 67R      -0.148000
     30 H1          -4.9510     1.7950    -0.1240 ha         1 67R       0.152000
     31 H2          -4.9100    -2.5500    -0.1890 ha         1 67R       0.145000
     32 H3          -6.2050    -2.5740     1.9370 ha         1 67R       0.144000
     33 H4          -2.4700    -0.2710     0.7910 h1         1 67R       0.067200
     34 H5          -1.8770     1.0300    -0.2380 h1         1 67R       0.067200
     35 H6           0.5300     1.2910    -0.6640 h4         1 67R       0.031100
     36 H7           1.2120    -2.8620     1.8220 h4         1 67R       0.062100
     37 H8           6.2960    -1.8970     0.6740 h1         1 67R       0.066700
     38 H9           6.1610    -1.0120     2.2100 h1         1 67R       0.066700
     39 H10          7.2900     1.4140     2.3020 h4         1 67R       0.036100
     40 H11          8.0720     2.9400    -2.5560 hc         1 67R       0.058700
     41 H12          9.4890     3.1860    -1.5170 hc         1 67R       0.058700
     42 H13          9.3780     1.7390    -2.5350 hc         1 67R       0.058700
     43 H14         -1.8200    -0.5400    -2.1090 hn         1 67R       0.485000
     44 H15          4.2990     0.1130     0.3620 hn         1 67R       0.344500
@<TRIPOS>BOND
     1     1     2 ar  
     2     1     6 ar  
     3     1    29 1   
     4     2     3 ar  
     5     2    28 1   
     6     3     4 ar  
     7     3    30 1   
     8     4     5 ar  
     9     4    25 1   
    10     5     6 ar  
    11     5    31 1   
    12     6    32 1   
    13     7     8 1   
    14     7    18 1   
    15     7    33 1   
    16     7    34 1   
    17     8     9 ar  
    18     8    20 ar  
    19     9    19 ar  
    20     9    35 1   
    21    10    11 ar  
    22    10    12 1   
    23    10    19 ar  
    24    11    20 ar  
    25    11    36 1   
    26    12    21 2   
    27    12    22 1   
    28    13    14 1   
    29    13    22 1   
    30    13    37 1   
    31    13    38 1   
    32    14    15 2   
    33    14    23 1   
    34    15    24 1   
    35    15    39 1   
    36    16    17 1   
    37    16    23 1   
    38    16    24 2   
    39    17    40 1   
    40    17    41 1   
    41    17    42 1   
    42    18    25 1   
    43    18    43 1   
    44    22    44 1   
    45    25    26 2   
    46    25    27 2   
@<TRIPOS>SUBSTRUCTURE
     1 67R         1 TEMP              0 ****  ****    0 ROOT
