@<TRIPOS>MOLECULE
67S
   60    62     1     0     0
SMALL
abcg2


@<TRIPOS>ATOM
      1 O4           6.9470    -1.2280    -0.9230 o          1 67S      -0.525500
      2 S            5.6750    -1.6610    -0.3460 sy         1 67S       1.044500
      3 O3           4.8320    -2.5460    -1.1490 o          1 67S      -0.525500
      4 C19          5.9900    -2.4800     1.2010 c3         1 67S      -0.335100
      5 C18          4.7170    -0.2230     0.1040 ca         1 67S      -0.219500
      6 C20          3.3550    -0.3230    -0.1180 ca         1 67S      -0.077000
      7 C16          5.3160     0.9310     0.6260 ca         1 67S      -0.032300
      8 C17          6.8000     1.0960     0.8600 c3         1 67S       0.203900
      9 O2           7.0150     2.1970     1.7050 oh         1 67S      -0.662000
     10 C15          4.4480     1.9780     0.9130 ca         1 67S      -0.073000
     11 C14          3.0790     1.8910     0.7120 ca         1 67S      -0.129000
     12 C13          2.4930     0.7380     0.1840 ca         1 67S       0.291000
     13 N4           1.1370     0.6290    -0.0830 nh         1 67S      -0.798400
     14 C21          0.3000     1.8040     0.0210 c6         1 67S       0.186800
     15 C4          -0.9630     1.6430    -0.8260 c6         1 67S       0.238500
     16 C2          -0.6860     1.6380    -2.3420 c3         1 67S      -0.070700
     17 C3          -1.9460     1.3020    -3.1340 c3         1 67S      -0.089100
     18 C1          -0.1450     2.9920    -2.7950 c3         1 67S      -0.089100
     19 C12          0.4400    -0.5730     0.3510 c6         1 67S       0.184800
     20 C11         -0.8380    -0.7680    -0.4420 c6         1 67S       0.217800
     21 N1          -1.6480     0.4320    -0.3950 nh         1 67S      -0.769300
     22 C5          -2.9310     0.4300     0.0220 ca         1 67S       0.405900
     23 N2          -3.4650    -0.7330     0.4080 nb         1 67S      -0.230000
     24 C6          -4.7150    -0.7290     0.8130 ca         1 67S       0.073300
     25 C7          -5.2420    -2.0870     1.2280 c3         1 67S       0.258700
     26 F2          -5.8360    -2.0310     2.4270 f          1 67S      -0.104667
     27 F1          -6.1540    -2.5340     0.3540 f          1 67S      -0.104667
     28 F3          -4.2850    -3.0010     1.3030 f          1 67S      -0.104667
     29 N3          -3.6030     1.5870     0.0290 nb         1 67S      -0.236000
     30 C10         -4.8540     1.5590     0.4380 ca         1 67S       0.178900
     31 C8          -5.5180     0.4050     0.8570 ca         1 67S      -0.219300
     32 C9          -6.9470     0.4560     1.3300 c3         1 67S       0.227900
     33 O1          -7.5560     1.6020     0.7910 oh         1 67S      -0.663000
     34 H1           6.5920    -3.3610     0.9800 h1         1 67S       0.103033
     35 H2           6.5330    -1.8210     1.8750 h1         1 67S       0.103033
     36 H3           5.0420    -2.7750     1.6440 h1         1 67S       0.103033
     37 H4           2.9570    -1.2290    -0.5520 ha         1 67S       0.145000
     38 H5           7.2250     0.1850     1.2980 h1         1 67S       0.043200
     39 H6           7.2980     1.2340    -0.1050 h1         1 67S       0.043200
     40 H7           7.9490     2.4200     1.6650 ho         1 67S       0.453000
     41 H8           4.8410     2.8960     1.3240 ha         1 67S       0.134000
     42 H9           2.4740     2.7440     0.9870 ha         1 67S       0.117000
     43 H10          0.0080     2.0070     1.0620 h1         1 67S       0.049200
     44 H11          0.8460     2.6780    -0.3310 h1         1 67S       0.049200
     45 H12         -1.6130     2.4890    -0.6040 h1         1 67S       0.092700
     46 H13          0.0740     0.8810    -2.5580 hc         1 67S       0.064700
     47 H14         -2.7280     2.0450    -2.9600 hc         1 67S       0.036700
     48 H15         -1.7300     1.2990    -4.2040 hc         1 67S       0.036700
     49 H16         -2.3540     0.3230    -2.8830 hc         1 67S       0.036700
     50 H17          0.8090     3.2450    -2.3340 hc         1 67S       0.036700
     51 H18          0.0100     2.9960    -3.8740 hc         1 67S       0.036700
     52 H19         -0.8530     3.7920    -2.5600 hc         1 67S       0.036700
     53 H20          1.0670    -1.4520     0.2110 h1         1 67S       0.050200
     54 H21          0.2000    -0.5090     1.4220 h1         1 67S       0.050200
     55 H22         -0.5950    -1.0100    -1.4810 h1         1 67S       0.076200
     56 H23         -1.3940    -1.6040    -0.0300 h1         1 67S       0.076200
     57 H24         -5.3720     2.5100     0.4330 h4         1 67S       0.044100
     58 H25         -7.4830    -0.4490     1.0250 h1         1 67S       0.037200
     59 H26         -6.9640     0.4770     2.4270 h1         1 67S       0.037200
     60 H27         -8.4120     1.7080     1.2170 ho         1 67S       0.453000
@<TRIPOS>BOND
     1     1     2 2   
     2     2     3 2   
     3     2     4 1   
     4     2     5 1   
     5     4    34 1   
     6     4    35 1   
     7     4    36 1   
     8     5     6 ar  
     9     5     7 ar  
    10     6    12 ar  
    11     6    37 1   
    12     7     8 1   
    13     7    10 ar  
    14     8     9 1   
    15     8    38 1   
    16     8    39 1   
    17     9    40 1   
    18    10    11 ar  
    19    10    41 1   
    20    11    12 ar  
    21    11    42 1   
    22    12    13 1   
    23    13    14 1   
    24    13    19 1   
    25    14    15 1   
    26    14    43 1   
    27    14    44 1   
    28    15    16 1   
    29    15    21 1   
    30    15    45 1   
    31    16    17 1   
    32    16    18 1   
    33    16    46 1   
    34    17    47 1   
    35    17    48 1   
    36    17    49 1   
    37    18    50 1   
    38    18    51 1   
    39    18    52 1   
    40    19    20 1   
    41    19    53 1   
    42    19    54 1   
    43    20    21 1   
    44    20    55 1   
    45    20    56 1   
    46    21    22 1   
    47    22    23 ar  
    48    22    29 ar  
    49    23    24 ar  
    50    24    25 1   
    51    24    31 ar  
    52    25    26 1   
    53    25    27 1   
    54    25    28 1   
    55    29    30 ar  
    56    30    31 ar  
    57    30    57 1   
    58    31    32 1   
    59    32    33 1   
    60    32    58 1   
    61    32    59 1   
    62    33    60 1   
@<TRIPOS>SUBSTRUCTURE
     1 67S         1 TEMP              0 ****  ****    0 ROOT
