@<TRIPOS>MOLECULE
67T
   48    51     1     0     0
SMALL
No Charge or Current Charge


@<TRIPOS>ATOM
      1 C10          2.3940    -0.8230     0.0770 c          1 67T       0.577600
      2 C15         -0.5170     2.3750    -2.5000 c3         1 67T      -0.093100
      3 C17         -2.7260     0.9450    -0.1510 ca         1 67T       0.494900
      4 C21         -4.4650    -0.2630    -0.9440 ca         1 67T       0.476900
      5 C26         -1.8680    -2.3850     0.6580 ca         1 67T      -0.104500
      6 C28         -1.3440    -2.9910    -1.6400 ca         1 67T      -0.104500
      7 C01          5.6350     1.1620     0.6130 ca         1 67T      -0.133000
      8 C02          5.2340     2.4240     0.1640 ca         1 67T      -0.067000
      9 C03          3.9280     2.6020    -0.3080 ca         1 67T      -0.105000
     10 C04          3.0080     1.5380    -0.3410 ca         1 67T       0.196400
     11 C05          3.4100     0.2660     0.1160 ca         1 67T      -0.191600
     12 C06          4.7380     0.0830     0.5940 ca         1 67T       0.182000
     13 N07          1.7390     1.8480    -0.8420 nc         1 67T      -0.638100
     14 C08          0.8670     0.8290    -0.8950 cd         1 67T       0.499900
     15 N09          1.1580    -0.4650    -0.4410 n          1 67T      -0.259500
     16 C11          0.0330    -1.3540    -0.4700 ca         1 67T       0.028600
     17 O12          2.5940    -1.9620     0.4750 o          1 67T      -0.494000
     18 Cl1          5.3690    -1.4570     1.1860 cl         1 67T      -0.161000
     19 C14         -0.5300     1.2170    -1.4720 c3         1 67T       0.205200
     20 N16         -1.5060     1.5640    -0.3960 nu         1 67T      -0.931100
     21 C18         -3.3000     0.9270     1.1250 ca         1 67T      -0.355000
     22 C19         -4.5130     0.2470     1.2460 ca         1 67T       0.489900
     23 N20         -5.1090    -0.3530     0.2170 nb         1 67T      -0.369000
     24 N22         -3.3100     0.3470    -1.1980 nb         1 67T      -0.367000
     25 N23         -5.1900     0.1340     2.4130 nv         1 67T      -1.074900
     26 N24         -5.0580    -0.8600    -1.9940 nv         1 67T      -1.057900
     27 C25         -0.7700    -1.5080     0.6760 ca         1 67T      -0.085000
     28 C27         -2.1580    -3.1230    -0.5020 ca         1 67T      -0.102000
     29 C29         -0.2450    -2.1150    -1.6230 ca         1 67T      -0.085000
     30 C30         -2.6660     1.5500     2.2450 cg         1 67T       0.353000
     31 N31         -2.1400     2.0640     3.1490 n1         1 67T      -0.503000
     32 H1           0.1850     2.1580    -3.3150 hc         1 67T       0.053033
     33 H2          -1.5130     2.5070    -2.9380 hc         1 67T       0.053033
     34 H3          -0.2240     3.3220    -2.0320 hc         1 67T       0.053033
     35 H4          -2.4940    -2.4910     1.5420 ha         1 67T       0.117000
     36 H5          -1.5640    -3.5700    -2.5350 ha         1 67T       0.117000
     37 H6           6.6490     1.0160     0.9800 ha         1 67T       0.134000
     38 H7           5.9300     3.2600     0.1800 ha         1 67T       0.123000
     39 H8           3.6200     3.5840    -0.6580 ha         1 67T       0.137000
     40 H9          -0.8890     0.3500    -2.0400 h1         1 67T       0.108700
     41 H10         -1.1430     2.1110     0.3860 hn         1 67T       0.511000
     42 H11         -4.9580     0.7660     3.1740 hn         1 67T       0.505000
     43 H12         -6.1530    -0.1900     2.3720 hn         1 67T       0.505000
     44 H13         -4.4890    -1.0310    -2.8170 hn         1 67T       0.500500
     45 H14         -5.7920    -1.5350    -1.8020 hn         1 67T       0.500500
     46 H15         -0.5480    -0.9390     1.5760 ha         1 67T       0.125000
     47 H16         -3.0090    -3.8000    -0.5170 ha         1 67T       0.114000
     48 H17          0.3860    -2.0210    -2.5040 ha         1 67T       0.125000
@<TRIPOS>BOND
     1     1    11 1   
     2     1    15 1   
     3     1    17 2   
     4     2    19 1   
     5     2    32 1   
     6     2    33 1   
     7     2    34 1   
     8     3    20 1   
     9     3    21 ar  
    10     3    24 ar  
    11     4    23 ar  
    12     4    24 ar  
    13     4    26 1   
    14     5    27 ar  
    15     5    28 ar  
    16     5    35 1   
    17     6    28 ar  
    18     6    29 ar  
    19     6    36 1   
    20     7     8 ar  
    21     7    12 ar  
    22     7    37 1   
    23     8     9 ar  
    24     8    38 1   
    25     9    10 ar  
    26     9    39 1   
    27    10    11 ar  
    28    10    13 1   
    29    11    12 ar  
    30    12    18 1   
    31    13    14 2   
    32    14    15 1   
    33    14    19 1   
    34    15    16 1   
    35    16    27 ar  
    36    16    29 ar  
    37    19    20 1   
    38    19    40 1   
    39    20    41 1   
    40    21    22 ar  
    41    21    30 1   
    42    22    23 ar  
    43    22    25 1   
    44    25    42 1   
    45    25    43 1   
    46    26    44 1   
    47    26    45 1   
    48    27    46 1   
    49    28    47 1   
    50    29    48 1   
    51    30    31 3   
@<TRIPOS>SUBSTRUCTURE
     1 67T         1 TEMP              0 ****  ****    0 ROOT
