@<TRIPOS>MOLECULE
67T
   48    51     1     0     0
SMALL
abcg2


@<TRIPOS>ATOM
      1 C10          2.2350    -0.7380     0.1020 c          1 67T       0.577600
      2 C15         -0.5380     2.6800    -2.1690 c3         1 67T      -0.093100
      3 C17         -2.6070     0.8490    -0.1300 ca         1 67T       0.494900
      4 C21         -4.1880    -0.4870    -1.0480 ca         1 67T       0.476900
      5 C26         -1.8230    -2.3420     0.8270 ca         1 67T      -0.104500
      6 C28         -1.4180    -2.8570    -1.4860 ca         1 67T      -0.104500
      7 C01          5.5990     0.9640     0.4120 ca         1 67T      -0.133000
      8 C02          5.2980     2.2090    -0.1390 ca         1 67T      -0.067000
      9 C03          4.0290     2.4850    -0.5900 ca         1 67T      -0.105000
     10 C04          3.0300     1.5100    -0.4980 ca         1 67T       0.196400
     11 C05          3.3150     0.2460     0.0510 ca         1 67T      -0.191600
     12 C06          4.6210    -0.0040     0.5060 ca         1 67T       0.182000
     13 N07          1.7820     1.8420    -0.9570 nc         1 67T      -0.638100
     14 C08          0.8360     0.9830    -0.8940 cd         1 67T       0.499900
     15 N09          1.0080    -0.2820    -0.3860 n          1 67T      -0.259500
     16 C11         -0.0660    -1.2330    -0.3600 ca         1 67T       0.028600
     17 O12          2.3320    -1.8740     0.5130 o          1 67T      -0.494000
     18 CL1          5.0920    -1.5100     1.2080 cl         1 67T      -0.161000
     19 C14         -0.5480     1.3870    -1.3700 c3         1 67T       0.205200
     20 N16         -1.4180     1.4710    -0.2170 nu         1 67T      -0.931100
     21 C18         -3.3550     0.8980     1.0710 ca         1 67T      -0.355000
     22 C19         -4.5700     0.1700     1.0880 ca         1 67T       0.489900
     23 N20         -4.9740    -0.5230     0.0300 nb         1 67T      -0.369000
     24 N22         -3.0410     0.1830    -1.1830 nb         1 67T      -0.367000
     25 N23         -5.3460     0.1400     2.1740 nv         1 67T      -1.074900
     26 N24         -4.6070    -1.1700    -2.1210 nv         1 67T      -1.057900
     27 C25         -0.7770    -1.4320     0.8120 ca         1 67T      -0.085000
     28 C27         -2.1470    -3.0520    -0.3220 ca         1 67T      -0.102000
     29 C29         -0.3700    -1.9480    -1.5070 ca         1 67T      -0.085000
     30 C30         -2.8880     1.5740     2.2080 cg         1 67T       0.353000
     31 N31         -2.5010     2.1310     3.1470 n1         1 67T      -0.503000
     32 H1           0.1030     2.5940    -3.0460 hc         1 67T       0.053033
     33 H2          -1.5530     2.8860    -2.5090 hc         1 67T       0.053033
     34 H3          -0.1930     3.5240    -1.5760 hc         1 67T       0.053033
     35 H4          -2.3910    -2.4880     1.7360 ha         1 67T       0.117000
     36 H5          -1.6640    -3.4120    -2.3830 ha         1 67T       0.117000
     37 H6           6.5990     0.7570     0.7670 ha         1 67T       0.134000
     38 H7           6.0760     2.9570    -0.2080 ha         1 67T       0.123000
     39 H8           3.7780     3.4460    -1.0180 ha         1 67T       0.137000
     40 H9          -0.9510     0.5970    -2.0020 h1         1 67T       0.108700
     41 H10         -1.1270     2.0730     0.5380 hn         1 67T       0.511000
     42 H11         -5.1310     0.6560     3.0090 hn         1 67T       0.505000
     43 H12         -6.2050    -0.3820     2.1540 hn         1 67T       0.505000
     44 H13         -3.9750    -1.3060    -2.8910 hn         1 67T       0.500500
     45 H14         -5.3860    -1.7990    -2.0350 hn         1 67T       0.500500
     46 H15         -0.5220    -0.8730     1.7030 ha         1 67T       0.125000
     47 H16         -2.9700    -3.7540    -0.3100 ha         1 67T       0.114000
     48 H17          0.2030    -1.7890    -2.4120 ha         1 67T       0.125000
@<TRIPOS>BOND
     1     1    11 1   
     2     1    15 1   
     3     1    17 2   
     4     2    19 1   
     5     2    32 1   
     6     2    33 1   
     7     2    34 1   
     8     3    20 1   
     9     3    21 ar  
    10     3    24 ar  
    11     4    23 ar  
    12     4    24 ar  
    13     4    26 1   
    14     5    27 ar  
    15     5    28 ar  
    16     5    35 1   
    17     6    28 ar  
    18     6    29 ar  
    19     6    36 1   
    20     7     8 ar  
    21     7    12 ar  
    22     7    37 1   
    23     8     9 ar  
    24     8    38 1   
    25     9    10 ar  
    26     9    39 1   
    27    10    11 ar  
    28    10    13 1   
    29    11    12 ar  
    30    12    18 1   
    31    13    14 2   
    32    14    15 1   
    33    14    19 1   
    34    15    16 1   
    35    16    27 ar  
    36    16    29 ar  
    37    19    20 1   
    38    19    40 1   
    39    20    41 1   
    40    21    22 ar  
    41    21    30 1   
    42    22    23 ar  
    43    22    25 1   
    44    25    42 1   
    45    25    43 1   
    46    26    44 1   
    47    26    45 1   
    48    27    46 1   
    49    28    47 1   
    50    29    48 1   
    51    30    31 3   
@<TRIPOS>SUBSTRUCTURE
     1 67T         1 TEMP              0 ****  ****    0 ROOT
