@<TRIPOS>MOLECULE
67U
   33    35     1     0     0
SMALL
No Charge or Current Charge


@<TRIPOS>ATOM
      1 C1           3.7370     2.4160     1.1750 c3         1 67U      -0.081100
      2 C18          3.8380     1.8170    -0.2470 c3         1 67U      -0.094000
      3 C2           5.0470     2.4120    -1.0130 c3         1 67U      -0.081100
      4 C17          3.8400     0.2960    -0.2080 cc         1 67U       0.327300
      5 N10          4.9600    -0.4040    -0.2280 nd         1 67U      -0.526800
      6 N19          4.5240    -1.7170    -0.1690 na         1 67U       0.145800
      7 C3           5.4840    -2.8290    -0.1700 c3         1 67U       0.071900
      8 C7           3.1350    -1.8220    -0.1050 cd         1 67U      -0.150000
      9 C13          2.6920    -0.5280    -0.1260 cc         1 67U      -0.260900
     10 C14          1.3050    -0.1470    -0.0630 cc         1 67U       0.548400
     11 N11          0.3240    -1.1260     0.0190 na         1 67U      -0.312600
     12 C15         -0.8700    -0.4760     0.0680 ca         1 67U      -0.138200
     13 C6          -2.1690    -0.9870     0.1550 ca         1 67U      -0.044000
     14 C12         -3.1940    -0.0240     0.1870 ca         1 67U      -0.077900
     15 Br4         -5.0250    -0.5690     0.3050 br         1 67U      -0.084100
     16 C5          -2.8530     1.3500     0.1300 ca         1 67U       0.355900
     17 N8          -1.5720     1.8010     0.0460 nb         1 67U      -0.608000
     18 C16         -0.6060     0.8690     0.0170 ca         1 67U       0.489000
     19 N9           0.7620     1.0830    -0.0660 nd         1 67U      -0.644700
     20 H1           3.6650     3.5090     1.1330 hc         1 67U       0.037533
     21 H2           2.8500     2.0380     1.6970 hc         1 67U       0.037533
     22 H3           4.6200     2.1520     1.7710 hc         1 67U       0.037533
     23 H4           2.9580     2.1460    -0.8090 hc         1 67U       0.083700
     24 H5           4.9530     3.5020    -1.0960 hc         1 67U       0.037533
     25 H6           5.9900     2.1910    -0.4980 hc         1 67U       0.037533
     26 H7           5.1020     2.0000    -2.0270 hc         1 67U       0.037533
     27 H8           6.1240    -2.7600     0.7170 h1         1 67U       0.060033
     28 H9           4.9460    -3.7840    -0.1570 h1         1 67U       0.060033
     29 H10          6.1040    -2.7750    -1.0730 h1         1 67U       0.060033
     30 H11          2.6160    -2.7720    -0.0480 h4         1 67U       0.148000
     31 H12          0.4860    -2.1230     0.0380 hn         1 67U       0.357000
     32 H13         -2.3750    -2.0540     0.1960 ha         1 67U       0.135000
     33 H14         -3.6310     2.1120     0.1530 h4         1 67U       0.037100
@<TRIPOS>BOND
     1     1     2 1   
     2     1    20 1   
     3     1    21 1   
     4     1    22 1   
     5     2     3 1   
     6     2     4 1   
     7     2    23 1   
     8     3    24 1   
     9     3    25 1   
    10     3    26 1   
    11     4     5 2   
    12     4     9 1   
    13     5     6 1   
    14     6     7 1   
    15     6     8 1   
    16     7    27 1   
    17     7    28 1   
    18     7    29 1   
    19     8     9 2   
    20     8    30 1   
    21     9    10 1   
    22    10    11 1   
    23    10    19 2   
    24    11    12 1   
    25    11    31 1   
    26    12    13 ar  
    27    12    18 ar  
    28    13    14 ar  
    29    13    32 1   
    30    14    15 1   
    31    14    16 ar  
    32    16    17 ar  
    33    16    33 1   
    34    17    18 ar  
    35    18    19 1   
@<TRIPOS>SUBSTRUCTURE
     1 67U         1 TEMP              0 ****  ****    0 ROOT
