@<TRIPOS>MOLECULE
67U
   33    35     1     0     0
SMALL
abcg2


@<TRIPOS>ATOM
      1 C1           3.5740     2.3620     1.1150 c3         1 67U      -0.081100
      2 C18          3.8090     1.8060    -0.2920 c3         1 67U      -0.094000
      3 C2           5.1090     2.3480    -0.8770 c3         1 67U      -0.081100
      4 C17          3.7810     0.3080    -0.2660 cc         1 67U       0.327300
      5 N10          4.8910    -0.3980    -0.3190 nd         1 67U      -0.526800
      6 N19          4.5300    -1.6800    -0.2360 na         1 67U       0.145800
      7 C3           5.5370    -2.7130    -0.2640 c3         1 67U       0.071900
      8 C7           3.2110    -1.8310    -0.1310 cd         1 67U      -0.150000
      9 C13          2.6620    -0.5590    -0.1450 cc         1 67U      -0.260900
     10 C14          1.2630    -0.2270    -0.0710 cc         1 67U       0.548400
     11 N11          0.3050    -1.1790     0.1310 na         1 67U      -0.312600
     12 C15         -0.9010    -0.5460     0.1420 ca         1 67U      -0.138200
     13 C6          -2.2080    -0.9620     0.3010 ca         1 67U      -0.044000
     14 C12         -3.1470     0.0570     0.2430 ca         1 67U      -0.077900
     15 BR4         -4.9760    -0.3460     0.4420 br         1 67U      -0.084100
     16 C5          -2.7670     1.3890     0.0380 ca         1 67U       0.355900
     17 N8          -1.5080     1.7700    -0.1110 nb         1 67U      -0.608000
     18 C16         -0.5930     0.8140    -0.0590 ca         1 67U       0.489000
     19 N9           0.7540     0.9780    -0.1880 nd         1 67U      -0.644700
     20 H1           3.5420     3.4520     1.0940 hc         1 67U       0.037533
     21 H2           2.6320     2.0110     1.5330 hc         1 67U       0.037533
     22 H3           4.3800     2.0640     1.7880 hc         1 67U       0.037533
     23 H4           2.9790     2.1390    -0.9190 hc         1 67U       0.083700
     24 H5           5.0690     3.4370    -0.9200 hc         1 67U       0.037533
     25 H6           5.9700     2.0700    -0.2680 hc         1 67U       0.037533
     26 H7           5.2830     1.9810    -1.8890 hc         1 67U       0.037533
     27 H8           6.1960    -2.6210     0.5970 h1         1 67U       0.060033
     28 H9           5.0500    -3.6830    -0.2360 h1         1 67U       0.060033
     29 H10          6.1240    -2.6380    -1.1770 h1         1 67U       0.060033
     30 H11          2.7590    -2.8070    -0.0600 h4         1 67U       0.148000
     31 H12          0.4570    -2.1680     0.2530 hn         1 67U       0.357000
     32 H13         -2.4770    -1.9980     0.4590 ha         1 67U       0.135000
     33 H14         -3.5200     2.1670    -0.0030 h4         1 67U       0.037100
@<TRIPOS>BOND
     1     1     2 1   
     2     1    20 1   
     3     1    21 1   
     4     1    22 1   
     5     2     3 1   
     6     2     4 1   
     7     2    23 1   
     8     3    24 1   
     9     3    25 1   
    10     3    26 1   
    11     4     5 2   
    12     4     9 1   
    13     5     6 1   
    14     6     7 1   
    15     6     8 1   
    16     7    27 1   
    17     7    28 1   
    18     7    29 1   
    19     8     9 2   
    20     8    30 1   
    21     9    10 1   
    22    10    11 1   
    23    10    19 2   
    24    11    12 1   
    25    11    31 1   
    26    12    13 ar  
    27    12    18 ar  
    28    13    14 ar  
    29    13    32 1   
    30    14    15 1   
    31    14    16 ar  
    32    16    17 ar  
    33    16    33 1   
    34    17    18 ar  
    35    18    19 1   
@<TRIPOS>SUBSTRUCTURE
     1 67U         1 TEMP              0 ****  ****    0 ROOT
