@<TRIPOS>MOLECULE
67V
   37    40     1     0     0
SMALL
abcg2


@<TRIPOS>ATOM
      1 C1          31.1870    31.4380    65.8110 c3         1 67V       0.155900
      2 C2          35.4380    38.9670    62.6270 ca         1 67V      -0.075000
      3 C3          35.3750    38.3220    63.8680 ca         1 67V      -0.137000
      4 C4          34.6360    37.1640    64.0310 ca         1 67V      -0.055000
      5 C5          34.7670    38.4910    61.5100 ca         1 67V      -0.073300
      6 C6          34.8200    39.1410    60.1750 cx         1 67V      -0.089400
      7 C7          34.8940    40.6270    60.0390 cx         1 67V      -0.124900
      8 C8          33.6300    39.9140    59.6740 cx         1 67V      -0.124900
      9 C9          34.0280    37.3220    61.6940 ca         1 67V       0.001800
     10 C10         33.9540    36.6540    62.9300 cp         1 67V      -0.071000
     11 C12         32.7180    35.5470    61.3570 ca         1 67V       0.450500
     12 C13         33.1100    35.5080    62.7100 cp         1 67V      -0.155000
     13 C14         32.6380    34.4560    63.4630 ca         1 67V       0.041000
     14 C15         31.8160    33.5020    62.8520 ca         1 67V      -0.242600
     15 C16         31.4850    33.6510    61.4800 ca         1 67V       0.453300
     16 C18         31.3200    32.3560    63.6450 c          1 67V       0.618700
     17 C21         30.6030    32.7020    60.7240 c3         1 67V      -0.150400
     18 N11         33.2740    36.6360    60.7660 na         1 67V      -0.328300
     19 N17         31.9370    34.6690    60.7550 nb         1 67V      -0.725000
     20 O19         31.5930    32.4890    64.9390 os         1 67V      -0.449100
     21 O20         30.7380    31.3950    63.2020 o          1 67V      -0.494000
     22 H1          31.5190    31.7300    66.8030 h1         1 67V       0.047700
     23 H2          30.1040    31.3170    65.8140 h1         1 67V       0.047700
     24 H3          31.6520    30.4900    65.5400 h1         1 67V       0.047700
     25 H4          36.0310    39.8690    62.5340 ha         1 67V       0.115000
     26 H5          35.9170    38.7370    64.7070 ha         1 67V       0.116000
     27 H6          34.5900    36.6660    64.9920 ha         1 67V       0.119000
     28 H7          35.3510    38.5690    59.4190 hc         1 67V       0.084700
     29 H8          35.5050    41.0300    59.2420 hc         1 67V       0.074700
     30 H9          34.8920    41.2250    60.9420 hc         1 67V       0.074700
     31 H10         32.7840    40.0170    60.3430 hc         1 67V       0.074700
     32 H11         33.3670    39.8250    58.6280 hc         1 67V       0.074700
     33 H12         32.9070    34.3690    64.5060 ha         1 67V       0.138000
     34 H13         30.4590    33.0890    59.7180 hc         1 67V       0.063367
     35 H14         31.0430    31.7080    60.6520 hc         1 67V       0.063367
     36 H15         29.6280    32.5850    61.1940 hc         1 67V       0.063367
     37 H16         33.1440    36.8980    59.8010 hn         1 67V       0.369000
@<TRIPOS>BOND
     1     1    20 1   
     2     1    22 1   
     3     1    23 1   
     4     1    24 1   
     5     2     3 ar  
     6     2     5 ar  
     7     2    25 1   
     8     3     4 ar  
     9     3    26 1   
    10     4    10 ar  
    11     4    27 1   
    12     5     6 1   
    13     5     9 ar  
    14     6     7 1   
    15     6     8 1   
    16     6    28 1   
    17     7     8 1   
    18     7    29 1   
    19     7    30 1   
    20     8    31 1   
    21     8    32 1   
    22     9    10 ar  
    23     9    18 1   
    24    10    12 1   
    25    11    12 ar  
    26    11    18 1   
    27    11    19 ar  
    28    12    13 ar  
    29    13    14 ar  
    30    13    33 1   
    31    14    15 ar  
    32    14    16 1   
    33    15    17 1   
    34    15    19 ar  
    35    16    20 1   
    36    16    21 2   
    37    17    34 1   
    38    17    35 1   
    39    17    36 1   
    40    18    37 1   
@<TRIPOS>SUBSTRUCTURE
     1 67V         1 TEMP              0 ****  ****    0 ROOT
