@<TRIPOS>MOLECULE
67V
   37    40     1     0     0
SMALL
No Charge or Current Charge


@<TRIPOS>ATOM
      1 C1          31.0000    31.5730    65.9280 c3         1 67V       0.155900
      2 C2          35.5640    38.9410    62.6380 ca         1 67V      -0.075000
      3 C3          35.5090    38.1950    63.8430 ca         1 67V      -0.137000
      4 C4          34.7340    37.0180    63.9300 ca         1 67V      -0.055000
      5 C5          34.8420    38.5270    61.4950 ca         1 67V      -0.073300
      6 C6          34.8920    39.3020    60.2100 cx         1 67V      -0.089400
      7 C7          34.7010    40.8010    60.1780 cx         1 67V      -0.124900
      8 C8          33.6430    39.8940    59.5970 cx         1 67V      -0.124900
      9 C9          34.0880    37.3520    61.6180 ca         1 67V       0.001800
     10 C10         34.0220    36.6080    62.7880 cp         1 67V      -0.071000
     11 C12         32.6930    35.5210    61.2210 ca         1 67V       0.450500
     12 C13         33.1510    35.4690    62.5380 cp         1 67V      -0.155000
     13 C14         32.7480    34.4160    63.3710 ca         1 67V       0.041000
     14 C15         31.8840    33.4430    62.8170 ca         1 67V      -0.242600
     15 C16         31.4680    33.5900    61.4650 ca         1 67V       0.453300
     16 C18         31.4370    32.2910    63.6670 c          1 67V       0.618700
     17 C21         30.5050    32.6340    60.7770 c3         1 67V      -0.150400
     18 N11         33.2810    36.6720    60.6950 na         1 67V      -0.328300
     19 N17         31.8700    34.6180    60.6740 nb         1 67V      -0.725000
     20 O19         31.4030    32.5990    65.0030 os         1 67V      -0.449100
     21 O20         31.1580    31.1860    63.2260 o          1 67V      -0.494000
     22 H1          31.0170    31.9570    66.9560 h1         1 67V       0.047700
     23 H2          29.9800    31.2280    65.7120 h1         1 67V       0.047700
     24 H3          31.6770    30.7100    65.8770 h1         1 67V       0.047700
     25 H4          36.1720    39.8430    62.5960 ha         1 67V       0.115000
     26 H5          36.0720    38.5330    64.7110 ha         1 67V       0.116000
     27 H6          34.6900    36.4440    64.8520 ha         1 67V       0.119000
     28 H7          35.6250    38.8930    59.5180 hc         1 67V       0.084700
     29 H8          35.3140    41.3750    59.4870 hc         1 67V       0.074700
     30 H9          34.4700    41.3080    61.1120 hc         1 67V       0.074700
     31 H10         32.7090    39.7940    60.1440 hc         1 67V       0.074700
     32 H11         33.5440    39.8580    58.5140 hc         1 67V       0.074700
     33 H12         33.1040    34.3580    64.3980 ha         1 67V       0.138000
     34 H13         30.1580    33.0240    59.8130 hc         1 67V       0.063367
     35 H14         30.9850    31.6680    60.5850 hc         1 67V       0.063367
     36 H15         29.6150    32.4610    61.3920 hc         1 67V       0.063367
     37 H16         33.1290    36.9710    59.7430 hn         1 67V       0.369000
@<TRIPOS>BOND
     1     1    20 1   
     2     1    22 1   
     3     1    23 1   
     4     1    24 1   
     5     2     3 ar  
     6     2     5 ar  
     7     2    25 1   
     8     3     4 ar  
     9     3    26 1   
    10     4    10 ar  
    11     4    27 1   
    12     5     6 1   
    13     5     9 ar  
    14     6     7 1   
    15     6     8 1   
    16     6    28 1   
    17     7     8 1   
    18     7    29 1   
    19     7    30 1   
    20     8    31 1   
    21     8    32 1   
    22     9    10 ar  
    23     9    18 1   
    24    10    12 1   
    25    11    12 ar  
    26    11    18 1   
    27    11    19 ar  
    28    12    13 ar  
    29    13    14 ar  
    30    13    33 1   
    31    14    15 ar  
    32    14    16 1   
    33    15    17 1   
    34    15    19 ar  
    35    16    20 1   
    36    16    21 2   
    37    17    34 1   
    38    17    35 1   
    39    17    36 1   
    40    18    37 1   
@<TRIPOS>SUBSTRUCTURE
     1 67V         1 TEMP              0 ****  ****    0 ROOT
