@<TRIPOS>MOLECULE
67W
   38    40     1     0     0
SMALL
No Charge or Current Charge


@<TRIPOS>ATOM
      1 N1           7.2910    -0.6560     0.0410 na         1 67W      -0.008200
      2 C4          -5.4180    -1.9760     0.0890 ca         1 67W      -0.095000
      3 C5          -4.2780    -2.6470    -0.3610 ca         1 67W      -0.159000
      4 C6          -3.0540    -1.9700    -0.4460 ca         1 67W      -0.095000
      5 C7          -2.9430    -0.6010    -0.0880 ca         1 67W      -0.171600
      6 C8          -1.5820     0.0650    -0.2200 c          1 67W       0.613700
      7 C10          1.5010     0.7010    -0.0770 ca         1 67W      -0.168500
      8 C13          3.1280    -1.5730     0.0930 ca         1 67W      -0.060000
      9 C15          5.2080    -0.1740    -0.0020 cc         1 67W       0.332500
     10 C17          7.2530     0.7380    -0.0620 cd         1 67W      -0.187000
     11 O2          -1.4460     1.2240    -0.5900 o          1 67W      -0.516100
     12 C3          -5.3300    -0.6270     0.4560 ca         1 67W      -0.116000
     13 C2          -4.1110     0.0820     0.3730 ca         1 67W       0.070700
     14 C1          -4.1320     1.5320     0.8750 c3         1 67W      -0.198100
     15 C           -4.8140     2.4350    -0.1660 c          1 67W       0.739000
     16 O1          -6.0330     2.5240    -0.1340 o          1 67W      -0.720500
     17 O           -4.1280     2.9410    -1.0410 o          1 67W      -0.720500
     18 C9           0.9000    -0.5710     0.0060 ca         1 67W       0.015000
     19 C14          1.7280    -1.7010     0.0980 ca         1 67W      -0.168500
     20 C12          3.7380    -0.3020     0.0020 ca         1 67W      -0.175500
     21 C11          2.9010     0.8330    -0.0810 ca         1 67W      -0.060000
     22 N2           6.0150    -1.2200     0.0780 nd         1 67W      -0.535800
     23 C16          5.9260     1.0360    -0.0890 cc         1 67W      -0.216000
     24 H1           8.1310    -1.2340     0.0870 hn         1 67W       0.363000
     25 H4          -2.1930    -2.5200    -0.8190 ha         1 67W       0.094000
     26 H5           0.9030     1.6050    -0.1280 ha         1 67W       0.131500
     27 H6           3.7330    -2.4740     0.1620 ha         1 67W       0.112000
     28 H7           8.1370     1.3650    -0.1050 h4         1 67W       0.145000
     29 H8          -6.2240    -0.1250     0.8180 ha         1 67W       0.115000
     30 H9          -4.7290     1.5280     1.7940 hc         1 67W       0.036200
     31 H10         -3.1110     1.8700     1.0670 hc         1 67W       0.036200
     32 H13          1.2870    -2.6930     0.1690 ha         1 67W       0.131500
     33 H14          3.3210     1.8330    -0.1460 ha         1 67W       0.112000
     34 H15          5.4950     2.0270    -0.1640 ha         1 67W       0.146000
     35 H2          -6.3690    -2.5000     0.1600 ha         1 67W       0.094000
     36 N           -0.5060    -0.7800     0.0230 ns         1 67W      -0.157000
     37 H3          -4.3420    -3.6940    -0.6480 ha         1 67W       0.093000
     38 H12         -0.7730    -1.7220     0.2760 hn         1 67W       0.147000
@<TRIPOS>BOND
     1     1    10 1   
     2     1    22 1   
     3     1    24 1   
     4     2     3 ar  
     5     2    12 ar  
     6     2    35 1   
     7     3     4 ar  
     8     3    37 1   
     9     4     5 ar  
    10     4    25 1   
    11     5     6 1   
    12     5    13 ar  
    13     6    11 2   
    14     6    36 1   
    15     7    18 ar  
    16     7    21 ar  
    17     7    26 1   
    18     8    19 ar  
    19     8    20 ar  
    20     8    27 1   
    21     9    20 1   
    22     9    22 2   
    23     9    23 1   
    24    10    23 2   
    25    10    28 1   
    26    12    13 ar  
    27    12    29 1   
    28    13    14 1   
    29    14    15 1   
    30    14    30 1   
    31    14    31 1   
    32    15    16 1   
    33    15    17 1   
    34    18    19 ar  
    35    18    36 1   
    36    19    32 1   
    37    20    21 ar  
    38    21    33 1   
    39    23    34 1   
    40    36    38 1   
@<TRIPOS>SUBSTRUCTURE
     1 67W         1 TEMP              0 ****  ****    0 ROOT
