@<TRIPOS>MOLECULE
67W
   38    40     1     0     0
SMALL
abcg2


@<TRIPOS>ATOM
      1 N1           7.0910    -0.5320     0.2340 na         1 67W      -0.008200
      2 C4          -5.4330    -1.9420    -0.0810 ca         1 67W      -0.095000
      3 C5          -4.3660    -2.5800    -0.6970 ca         1 67W      -0.159000
      4 C6          -3.1270    -1.9600    -0.7170 ca         1 67W      -0.095000
      5 C7          -2.9500    -0.7010    -0.1420 ca         1 67W      -0.171600
      6 C8          -1.6160    -0.0370    -0.2600 c          1 67W       0.613700
      7 C10          1.3660     0.5860    -0.4860 ca         1 67W      -0.168500
      8 C13          3.0190    -1.4040     0.5190 ca         1 67W      -0.060000
      9 C15          5.0520    -0.0620    -0.0210 cc         1 67W       0.332500
     10 C17          7.1010     0.7150    -0.2620 cd         1 67W      -0.187000
     11 O2          -1.4940     1.1110    -0.6460 o          1 67W      -0.516100
     12 C3          -5.2530    -0.6950     0.4980 ca         1 67W      -0.116000
     13 C2          -4.0220    -0.0440     0.4750 ca         1 67W       0.070700
     14 C1          -3.8920     1.3010     1.1180 c3         1 67W      -0.198100
     15 C           -4.1630     2.4850     0.1590 c          1 67W       0.739000
     16 O1          -4.7980     2.2400    -0.8820 o          1 67W      -0.720500
     17 O           -3.7610     3.5970     0.5500 o          1 67W      -0.720500
     18 C9           0.7980    -0.5770     0.0340 ca         1 67W       0.015000
     19 C14          1.6490    -1.5670     0.5340 ca         1 67W      -0.168500
     20 C12          3.6000    -0.2440     0.0030 ca         1 67W      -0.175500
     21 C11          2.7440     0.7350    -0.4960 ca         1 67W      -0.060000
     22 N2           5.8700    -1.0220     0.3880 nd         1 67W      -0.535800
     23 C16          5.7870     1.0670    -0.4450 cc         1 67W      -0.216000
     24 H1           7.8900    -1.0950     0.4790 hn         1 67W       0.363000
     25 H4          -2.2970    -2.4530    -1.2080 ha         1 67W       0.094000
     26 H5           0.7540     1.3780    -0.8850 ha         1 67W       0.131500
     27 H6           3.6440    -2.1930     0.9160 ha         1 67W       0.112000
     28 H7           8.0180     1.2500    -0.4440 h4         1 67W       0.145000
     29 H8          -6.0890    -0.2110     0.9900 ha         1 67W       0.115000
     30 H9          -4.6300     1.3690     1.9250 hc         1 67W       0.036200
     31 H10         -2.9190     1.4310     1.5950 hc         1 67W       0.036200
     32 H13          1.2290    -2.4800     0.9410 ha         1 67W       0.131500
     33 H14          3.1500     1.6490    -0.9110 ha         1 67W       0.112000
     34 H15          5.4170     2.0040    -0.8260 ha         1 67W       0.146000
     35 H2          -6.4070    -2.4150    -0.0520 ha         1 67W       0.094000
     36 N           -0.5730    -0.8380     0.0870 ns         1 67W      -0.157000
     37 H3          -4.4950    -3.5510    -1.1570 ha         1 67W       0.093000
     38 H12         -0.8170    -1.7370     0.4740 hn         1 67W       0.147000
@<TRIPOS>BOND
     1     1    10 1   
     2     1    22 1   
     3     1    24 1   
     4     2     3 ar  
     5     2    12 ar  
     6     2    35 1   
     7     3     4 ar  
     8     3    37 1   
     9     4     5 ar  
    10     4    25 1   
    11     5     6 1   
    12     5    13 ar  
    13     6    11 2   
    14     6    36 1   
    15     7    18 ar  
    16     7    21 ar  
    17     7    26 1   
    18     8    19 ar  
    19     8    20 ar  
    20     8    27 1   
    21     9    20 1   
    22     9    22 2   
    23     9    23 1   
    24    10    23 2   
    25    10    28 1   
    26    12    13 ar  
    27    12    29 1   
    28    13    14 1   
    29    14    15 1   
    30    14    30 1   
    31    14    31 1   
    32    15    16 1   
    33    15    17 1   
    34    18    19 ar  
    35    18    36 1   
    36    19    32 1   
    37    20    21 ar  
    38    21    33 1   
    39    23    34 1   
    40    36    38 1   
@<TRIPOS>SUBSTRUCTURE
     1 67W         1 TEMP              0 ****  ****    0 ROOT
