@<TRIPOS>MOLECULE
67X
   29    30     1     0     0
SMALL
No Charge or Current Charge


@<TRIPOS>ATOM
      1 C5           0.4090     0.0800     0.0530 ca         1 67X       0.449000
      2 C6           1.4090     1.0780    -0.0500 ca         1 67X      -0.179300
      3 C7           2.9030     0.7180     0.0060 c6         1 67X      -0.022100
      4 C8           1.0430     2.4280    -0.1790 ca         1 67X      -0.011000
      5 C10         -1.3050     1.8040    -0.1190 ca         1 67X       0.015000
      6 C2           3.1680    -0.7850    -0.2640 c6         1 67X      -0.077700
      7 C3           2.1720    -1.6440     0.5460 c6         1 67X       0.223800
      8 N4           0.8090    -1.2470     0.1720 nu         1 67X      -0.952200
      9 C9          -0.3100     2.7870    -0.2140 ca         1 67X      -0.187000
     10 C11         -0.9520     0.4430     0.0140 ca         1 67X      -0.372500
     11 S12         -2.2690    -0.7570     0.1260 sy         1 67X       1.130600
     12 N13         -2.5410    -1.0860    -1.4480 n8         1 67X      -1.003100
     13 O14         -1.8040    -2.0170     0.7060 o          1 67X      -0.557500
     14 O15         -3.5030    -0.1000     0.5490 o          1 67X      -0.557500
     15 H1           3.4650     1.3250    -0.7180 hc         1 67X       0.049700
     16 H2           3.2900     0.9880     0.9980 hc         1 67X       0.049700
     17 H3           1.8070     3.2000    -0.2490 ha         1 67X       0.109000
     18 H4          -2.3500     2.1110    -0.1490 ha         1 67X       0.136000
     19 H8           3.0030    -0.9830    -1.3330 hc         1 67X       0.064700
     20 H9           2.3350    -2.7140     0.3450 h1         1 67X       0.045700
     21 H10          2.3370    -1.4760     1.6210 h1         1 67X       0.045700
     22 H11          0.0420    -1.9010     0.3640 hn         1 67X       0.511000
     23 H12         -0.5900     3.8330    -0.3140 ha         1 67X       0.120000
     24 H13         -2.0880    -0.3030    -1.9120 hn         1 67X       0.471000
     25 H14         -3.5330    -0.8730    -1.5170 hn         1 67X       0.471000
     26 C1           4.6420    -1.1740     0.0300 c3         1 67X      -0.087100
     27 H5           4.8940    -1.0190     1.0860 hc         1 67X       0.038033
     28 H6           4.8270    -2.2300    -0.2050 hc         1 67X       0.038033
     29 H7           5.3370    -0.5750    -0.5710 hc         1 67X       0.038033
@<TRIPOS>BOND
     1     1     2 ar  
     2     1     8 1   
     3     1    10 ar  
     4     2     3 1   
     5     2     4 ar  
     6     3     6 1   
     7     3    15 1   
     8     3    16 1   
     9     4     9 ar  
    10     4    17 1   
    11     5     9 ar  
    12     5    10 ar  
    13     5    18 1   
    14     6     7 1   
    15     6    19 1   
    16     6    26 1   
    17     7     8 1   
    18     7    20 1   
    19     7    21 1   
    20     8    22 1   
    21     9    23 1   
    22    10    11 1   
    23    11    12 1   
    24    11    13 2   
    25    11    14 2   
    26    12    24 1   
    27    12    25 1   
    28    26    27 1   
    29    26    28 1   
    30    26    29 1   
@<TRIPOS>SUBSTRUCTURE
     1 67X         1 TEMP              0 ****  ****    0 ROOT
