@<TRIPOS>MOLECULE
67X
   29    30     1     0     0
SMALL
abcg2


@<TRIPOS>ATOM
      1 C5           0.4070     0.1460     0.1000 ca         1 67X       0.449000
      2 C6           1.4330     1.1180     0.0230 ca         1 67X      -0.179300
      3 C7           2.8760     0.6910     0.0930 c6         1 67X      -0.022100
      4 C8           1.1050     2.4530    -0.1030 ca         1 67X      -0.011000
      5 C10         -1.2280     1.9690    -0.0730 ca         1 67X       0.015000
      6 C2           3.0790    -0.7590    -0.3300 c6         1 67X      -0.077700
      7 C3           2.0810    -1.6210     0.4240 c6         1 67X       0.223800
      8 N4           0.7280    -1.1680     0.1890 nu         1 67X      -0.952200
      9 C9          -0.2140     2.8980    -0.1450 ca         1 67X      -0.187000
     10 C11         -0.9280     0.6120     0.0400 ca         1 67X      -0.372500
     11 S12         -2.2830    -0.5070     0.0990 sy         1 67X       1.130600
     12 N13         -2.1480    -1.2630    -1.3650 n8         1 67X      -1.003100
     13 O14         -2.0450    -1.5530     1.0930 o          1 67X      -0.557500
     14 O15         -3.5140     0.2610     0.2300 o          1 67X      -0.557500
     15 H1           3.4830     1.3550    -0.5250 hc         1 67X       0.049700
     16 H2           3.2400     0.8120     1.1200 hc         1 67X       0.049700
     17 H3           1.9110     3.1750    -0.1630 ha         1 67X       0.109000
     18 H4          -2.2590     2.2910    -0.1090 ha         1 67X       0.136000
     19 H8           2.8620    -0.8470    -1.4010 hc         1 67X       0.064700
     20 H9           2.1450    -2.6590     0.0970 h1         1 67X       0.045700
     21 H10          2.3270    -1.6070     1.4950 h1         1 67X       0.045700
     22 H11          0.0020    -1.8160     0.4480 hn         1 67X       0.511000
     23 H12         -0.4390     3.9520    -0.2350 ha         1 67X       0.120000
     24 H13         -2.3950    -0.6570    -2.1410 hn         1 67X       0.471000
     25 H14         -2.7010    -2.1160    -1.3970 hn         1 67X       0.471000
     26 C1           4.5030    -1.2220    -0.0740 c3         1 67X      -0.087100
     27 H5           4.7530    -1.1550     0.9880 hc         1 67X       0.038033
     28 H6           4.6470    -2.2580    -0.3850 hc         1 67X       0.038033
     29 H7           5.2200    -0.6110    -0.6220 hc         1 67X       0.038033
@<TRIPOS>BOND
     1     1     2 ar  
     2     1     8 1   
     3     1    10 ar  
     4     2     3 1   
     5     2     4 ar  
     6     3     6 1   
     7     3    15 1   
     8     3    16 1   
     9     4     9 ar  
    10     4    17 1   
    11     5     9 ar  
    12     5    10 ar  
    13     5    18 1   
    14     6     7 1   
    15     6    19 1   
    16     6    26 1   
    17     7     8 1   
    18     7    20 1   
    19     7    21 1   
    20     8    22 1   
    21     9    23 1   
    22    10    11 1   
    23    11    12 1   
    24    11    13 2   
    25    11    14 2   
    26    12    24 1   
    27    12    25 1   
    28    26    27 1   
    29    26    28 1   
    30    26    29 1   
@<TRIPOS>SUBSTRUCTURE
     1 67X         1 TEMP              0 ****  ****    0 ROOT
