@<TRIPOS>MOLECULE
67Y
   30    31     1     0     0
SMALL
bcc


@<TRIPOS>ATOM
      1 C6          -0.0100     0.7740     0.2740 c6         1 67Y       0.158000
      2 C7           0.5650     2.1250    -0.1420 c6         1 67Y      -0.090400
      3 C8           1.9700     2.2980     0.4080 c6         1 67Y      -0.070400
      4 C10          2.3300    -0.1350    -0.1410 ca         1 67Y      -0.063300
      5 C13          1.3610    -2.7590    -0.0480 ca         1 67Y      -0.133000
      6 C15          0.9670    -0.3690     0.0580 ca         1 67Y      -0.097300
      7 O1          -4.8300     0.5150    -0.1160 oh         1 67Y      -0.557800
      8 C2          -3.6200     0.3130    -0.7830 c3         1 67Y       0.055400
      9 C3          -2.4760     0.6000     0.1770 c          1 67Y       0.666100
     10 O4          -2.6600     0.8630     1.3530 o          1 67Y      -0.565100
     11 N5          -1.2640     0.5150    -0.4000 ns         1 67Y      -0.581900
     12 C9           2.8970     1.2610    -0.2060 c6         1 67Y      -0.034100
     13 C11          3.1860    -1.2260    -0.2970 ca         1 67Y      -0.133000
     14 C12          2.7150    -2.5270    -0.2550 ca         1 67Y      -0.121000
     15 C14          0.5010    -1.6840     0.1070 ca         1 67Y      -0.115000
     16 H1          -0.2360     0.8190     1.3430 h1         1 67Y       0.092700
     17 H2           0.5870     2.1940    -1.2350 hc         1 67Y       0.048200
     18 H3          -0.1000     2.9150     0.2120 hc         1 67Y       0.048200
     19 H4           2.3420     3.3020     0.1960 hc         1 67Y       0.047700
     20 H5           1.9580     2.1920     1.4970 hc         1 67Y       0.047700
     21 H6           0.9770    -3.7700    -0.0040 ha         1 67Y       0.132000
     22 H7          -5.5400     0.3360    -0.7390 ho         1 67Y       0.405000
     23 H8          -3.5060    -0.7190    -1.1460 h1         1 67Y       0.030200
     24 H9          -3.5080     0.9640    -1.6610 h1         1 67Y       0.030200
     25 H10         -1.2180     0.3390    -1.3930 hn         1 67Y       0.308500
     26 H11          3.0780     1.5190    -1.2560 hc         1 67Y       0.049700
     27 H12          3.8740     1.2790     0.2800 hc         1 67Y       0.049700
     28 H13          4.2440    -1.0460    -0.4510 ha         1 67Y       0.128000
     29 H14          3.4000    -3.3560    -0.3770 ha         1 67Y       0.131000
     30 H15         -0.5540    -1.8680     0.2690 ha         1 67Y       0.135000
@<TRIPOS>BOND
     1     1     2 1   
     2     1     6 1   
     3     1    11 1   
     4     1    16 1   
     5     2     3 1   
     6     2    17 1   
     7     2    18 1   
     8     3    12 1   
     9     3    19 1   
    10     3    20 1   
    11     4     6 ar  
    12     4    12 1   
    13     4    13 ar  
    14     5    14 ar  
    15     5    15 ar  
    16     5    21 1   
    17     6    15 ar  
    18     7     8 1   
    19     7    22 1   
    20     8     9 1   
    21     8    23 1   
    22     8    24 1   
    23     9    10 2   
    24     9    11 1   
    25    11    25 1   
    26    12    26 1   
    27    12    27 1   
    28    13    14 ar  
    29    13    28 1   
    30    14    29 1   
    31    15    30 1   
@<TRIPOS>SUBSTRUCTURE
     1 67Y         1 TEMP              0 ****  ****    0 ROOT
