@<TRIPOS>MOLECULE
67Y
   30    31     1     0     0
SMALL
No Charge or Current Charge


@<TRIPOS>ATOM
      1 C6          -0.0020     0.7660     0.3550 c6         1 67Y       0.158000
      2 C7           0.5580     2.1480    -0.0570 c6         1 67Y      -0.090400
      3 C8           2.0110     2.3220     0.4250 c6         1 67Y      -0.070400
      4 C10          2.3540    -0.1540    -0.1660 ca         1 67Y      -0.063300
      5 C13          1.4020    -2.8030    -0.0180 ca         1 67Y      -0.115000
      6 C15          0.9820    -0.3940     0.1040 ca         1 67Y      -0.097300
      7 O1          -5.0170     0.5210    -0.2660 oh         1 67Y      -0.620000
      8 C2          -3.6880     0.3380    -0.8150 c3         1 67Y       0.078600
      9 C3          -2.5300     0.6980     0.1680 c          1 67Y       0.599100
     10 O4          -2.7050     1.1090     1.3100 o          1 67Y      -0.565100
     11 N5          -1.2650     0.5190    -0.3520 ns         1 67Y      -0.514900
     12 C9           2.9200     1.2690    -0.2430 c6         1 67Y      -0.034100
     13 C11          3.2250    -1.2400    -0.3800 ca         1 67Y      -0.115000
     14 C12          2.7520    -2.5600    -0.3090 ca         1 67Y      -0.103000
     15 C14          0.5240    -1.7270     0.1910 ca         1 67Y      -0.097000
     16 H1          -0.1980     0.7880     1.4380 h1         1 67Y       0.092700
     17 H2           0.5240     2.2560    -1.1500 hc         1 67Y       0.048200
     18 H3          -0.0750     2.9440     0.3570 hc         1 67Y       0.048200
     19 H4           2.3720     3.3320     0.1890 hc         1 67Y       0.047700
     20 H5           2.0560     2.2160     1.5180 hc         1 67Y       0.047700
     21 H6           1.0350    -3.8250     0.0470 ha         1 67Y       0.114000
     22 H7          -5.6610     0.2670    -0.9640 ho         1 67Y       0.444000
     23 H8          -3.5440    -0.7080    -1.1190 h1         1 67Y       0.030200
     24 H9          -3.5600     0.9570    -1.7120 h1         1 67Y       0.030200
     25 H10         -1.2120     0.1730    -1.3030 hn         1 67Y       0.308500
     26 H11          3.0670     1.5340    -1.2990 hc         1 67Y       0.049700
     27 H12          3.9150     1.3040     0.2220 hc         1 67Y       0.049700
     28 H13          4.2760    -1.0600    -0.5980 ha         1 67Y       0.110000
     29 H14          3.4330    -3.3920    -0.4720 ha         1 67Y       0.113000
     30 H15         -0.5180    -1.9350     0.4250 ha         1 67Y       0.117000
@<TRIPOS>BOND
     1     1     2 1   
     2     1     6 1   
     3     1    11 1   
     4     1    16 1   
     5     2     3 1   
     6     2    17 1   
     7     2    18 1   
     8     3    12 1   
     9     3    19 1   
    10     3    20 1   
    11     4     6 ar  
    12     4    12 1   
    13     4    13 ar  
    14     5    14 ar  
    15     5    15 ar  
    16     5    21 1   
    17     6    15 ar  
    18     7     8 1   
    19     7    22 1   
    20     8     9 1   
    21     8    23 1   
    22     8    24 1   
    23     9    10 2   
    24     9    11 1   
    25    11    25 1   
    26    12    26 1   
    27    12    27 1   
    28    13    14 ar  
    29    13    28 1   
    30    14    29 1   
    31    15    30 1   
@<TRIPOS>SUBSTRUCTURE
     1 67Y         1 TEMP              0 ****  ****    0 ROOT
