@<TRIPOS>MOLECULE
67Z
   58    60     1     0     0
SMALL
No Charge or Current Charge


@<TRIPOS>ATOM
      1 CAB          5.1090    -1.2960     3.6100 c3         1 67Z       0.149900
      2 OAU          4.6480    -0.4850     2.5140 os         1 67Z      -0.347100
      3 CBA          4.3440    -1.0130     1.2720 ca         1 67Z       0.114100
      4 CAK          4.4800    -2.3940     1.0020 ca         1 67Z      -0.159000
      5 CAJ          4.1780    -2.9050    -0.2720 ca         1 67Z      -0.157000
      6 CAZ          3.7380    -2.0370    -1.2910 ca         1 67Z       0.105100
      7 OAT          3.4300    -2.4790    -2.5630 os         1 67Z      -0.341100
      8 CAA          3.5340    -3.8640    -2.9410 c3         1 67Z       0.149900
      9 CAL          3.6030    -0.6670    -1.0220 ca         1 67Z      -0.094000
     10 CBB          3.8960    -0.1360     0.2560 ca         1 67Z      -0.073300
     11 CBC          3.7440     1.3680     0.5430 c5         1 67Z       0.167000
     12 CAP          4.8930     2.0950    -0.2150 c5         1 67Z      -0.088400
     13 CAM          4.2490     3.4730    -0.5030 c5         1 67Z      -0.096400
     14 CAQ          2.8340     3.0690    -0.9950 c5         1 67Z       0.100000
     15 NBD          2.5390     1.9020    -0.1340 n          1 67Z      -0.414800
     16 C            1.2310     1.4500     0.1440 c          1 67Z       0.591100
     17 O            1.0250     0.6170     1.0220 o          1 67Z      -0.606100
     18 CA           0.0710     2.0250    -0.7140 c3         1 67Z       0.040000
     19 N           -1.2320     1.4060    -0.3870 ns         1 67Z      -0.520900
     20 CAV         -2.4090     1.7150    -1.0050 c          1 67Z       0.648100
     21 OAD         -2.5020     2.5410    -1.8960 o          1 67Z      -0.655100
     22 NAS         -3.4660     1.0030    -0.5190 ns         1 67Z      -0.512900
     23 CAO         -4.8340     1.1420    -1.0050 c3         1 67Z       0.165300
     24 CAY         -5.7720     0.2090    -0.2570 ca         1 67Z      -0.158300
     25 CAH         -6.4140     0.6420     0.9200 ca         1 67Z      -0.053000
     26 CAF         -7.2800    -0.2240     1.6110 ca         1 67Z      -0.183000
     27 CAX         -7.5080    -1.5220     1.1340 ca         1 67Z       0.296000
     28 NAC         -8.3500    -2.3620     1.8090 nv         1 67Z      -1.070000
     29 CAG         -6.8700    -1.9580    -0.0360 ca         1 67Z      -0.183000
     30 CAI         -6.0030    -1.0970    -0.7310 ca         1 67Z      -0.053000
     31 H1           5.2860    -0.6720     4.4950 h1         1 67Z       0.039033
     32 H2           4.3620    -2.0560     3.8740 h1         1 67Z       0.039033
     33 H3           6.0500    -1.7980     3.3550 h1         1 67Z       0.039033
     34 H4           4.8220    -3.0870     1.7650 ha         1 67Z       0.115000
     35 H5           4.2930    -3.9710    -0.4470 ha         1 67Z       0.116000
     36 H6           3.2430    -3.9930    -3.9910 h1         1 67Z       0.038033
     37 H7           4.5650    -4.2220    -2.8270 h1         1 67Z       0.038033
     38 H8           2.8730    -4.4870    -2.3250 h1         1 67Z       0.038033
     39 H9           3.2670    -0.0120    -1.8210 ha         1 67Z       0.131000
     40 H10          3.7310     1.6110     1.6150 h1         1 67Z       0.082700
     41 H11          5.8060     2.1680     0.3860 hc         1 67Z       0.060200
     42 H12          5.1620     1.5940    -1.1530 hc         1 67Z       0.060200
     43 H13          4.1910     4.0790     0.4100 hc         1 67Z       0.056200
     44 H14          4.8020     4.0550    -1.2480 hc         1 67Z       0.056200
     45 H15          2.1170     3.8900    -0.8640 h1         1 67Z       0.052200
     46 H16          2.8440     2.7750    -2.0530 h1         1 67Z       0.052200
     47 H17          0.0110     3.1060    -0.5380 h1         1 67Z       0.063700
     48 H18          0.3050     1.8520    -1.7720 h1         1 67Z       0.063700
     49 H19         -1.2560     0.7050     0.3450 hn         1 67Z       0.337500
     50 H20         -3.2880     0.3400     0.2220 hn         1 67Z       0.305500
     51 H21         -5.1570     2.1830    -0.8730 h1         1 67Z       0.054200
     52 H22         -4.8570     0.9130    -2.0790 h1         1 67Z       0.054200
     53 H23         -6.2420     1.6480     1.2990 ha         1 67Z       0.114000
     54 H24         -7.7720     0.1200     2.5170 ha         1 67Z       0.112500
     55 H25         -8.6960    -2.0980     2.7290 hn         1 67Z       0.447500
     56 H26         -8.4030    -3.3450     1.5480 hn         1 67Z       0.447500
     57 H27         -7.0420    -2.9630    -0.4100 ha         1 67Z       0.112500
     58 H28         -5.5100    -1.4450    -1.6380 ha         1 67Z       0.114000
@<TRIPOS>BOND
     1     1     2 1   
     2     1    31 1   
     3     1    32 1   
     4     1    33 1   
     5     2     3 1   
     6     3     4 ar  
     7     3    10 ar  
     8     4     5 ar  
     9     4    34 1   
    10     5     6 ar  
    11     5    35 1   
    12     6     7 1   
    13     6     9 ar  
    14     7     8 1   
    15     8    36 1   
    16     8    37 1   
    17     8    38 1   
    18     9    10 ar  
    19     9    39 1   
    20    10    11 1   
    21    11    12 1   
    22    11    15 1   
    23    11    40 1   
    24    12    13 1   
    25    12    41 1   
    26    12    42 1   
    27    13    14 1   
    28    13    43 1   
    29    13    44 1   
    30    14    15 1   
    31    14    45 1   
    32    14    46 1   
    33    15    16 1   
    34    16    17 2   
    35    16    18 1   
    36    18    19 1   
    37    18    47 1   
    38    18    48 1   
    39    19    20 1   
    40    19    49 1   
    41    20    21 2   
    42    20    22 1   
    43    22    23 1   
    44    22    50 1   
    45    23    24 1   
    46    23    51 1   
    47    23    52 1   
    48    24    25 ar  
    49    24    30 ar  
    50    25    26 ar  
    51    25    53 1   
    52    26    27 ar  
    53    26    54 1   
    54    27    28 1   
    55    27    29 ar  
    56    28    55 1   
    57    28    56 1   
    58    29    30 ar  
    59    29    57 1   
    60    30    58 1   
@<TRIPOS>SUBSTRUCTURE
     1 67Z         1 TEMP              0 ****  ****    0 ROOT
