@<TRIPOS>MOLECULE
67Z
   58    60     1     0     0
SMALL
abcg2


@<TRIPOS>ATOM
      1 CAB          5.6720    -1.1430     3.2830 c3         1 67Z       0.149900
      2 OAU          4.9540    -0.3970     2.3250 os         1 67Z      -0.347100
      3 CBA          4.6040    -1.0020     1.1660 ca         1 67Z       0.114100
      4 CAK          4.9400    -2.3060     0.8360 ca         1 67Z      -0.159000
      5 CAJ          4.5570    -2.8570    -0.3850 ca         1 67Z      -0.157000
      6 CAZ          3.8330    -2.0940    -1.2890 ca         1 67Z       0.105100
      7 OAT          3.4140    -2.5250    -2.5000 os         1 67Z      -0.341100
      8 CAA          3.7380    -3.8440    -2.8820 c3         1 67Z       0.149900
      9 CAL          3.4960    -0.7820    -0.9510 ca         1 67Z      -0.094000
     10 CBB          3.8610    -0.2290     0.2610 ca         1 67Z      -0.073300
     11 CBC          3.5400     1.2080     0.5940 c5         1 67Z       0.167000
     12 CAP          4.6550     2.1660     0.1440 c5         1 67Z      -0.088400
     13 CAM          3.9200     3.4500    -0.2120 c5         1 67Z      -0.096400
     14 CAQ          2.6450     2.9340    -0.8640 c5         1 67Z       0.100000
     15 NBD          2.3600     1.7230    -0.0990 n          1 67Z      -0.414800
     16 C            1.1440     1.2200     0.1510 c          1 67Z       0.591100
     17 O            0.9630     0.2900     0.9260 o          1 67Z      -0.606100
     18 CA          -0.0120     1.8670    -0.5930 c3         1 67Z       0.040000
     19 N           -1.2020     1.0980    -0.3800 ns         1 67Z      -0.520900
     20 CAV         -2.3870     1.4680    -0.9250 c          1 67Z       0.648100
     21 OAD         -2.4860     2.4220    -1.6910 o          1 67Z      -0.655100
     22 NAS         -3.4540     0.7110    -0.5490 ns         1 67Z      -0.512900
     23 CAO         -4.7390     0.8420    -1.2080 c3         1 67Z       0.165300
     24 CAY         -5.8110     0.1630    -0.4040 ca         1 67Z      -0.158300
     25 CAH         -6.2870     0.7250     0.7790 ca         1 67Z      -0.053000
     26 CAF         -7.2620     0.1010     1.5360 ca         1 67Z      -0.183000
     27 CAX         -7.8020    -1.1280     1.1330 ca         1 67Z       0.296000
     28 NAC         -8.8150    -1.7260     1.8520 nv         1 67Z      -1.070000
     29 CAG         -7.3230    -1.6990    -0.0510 ca         1 67Z      -0.183000
     30 CAI         -6.3460    -1.0590    -0.7980 ca         1 67Z      -0.053000
     31 H1           5.8260    -0.4870     4.1370 h1         1 67Z       0.039033
     32 H2           5.1180    -2.0260     3.6140 h1         1 67Z       0.039033
     33 H3           6.6480    -1.4630     2.9070 h1         1 67Z       0.039033
     34 H4           5.5090    -2.9260     1.5160 ha         1 67Z       0.115000
     35 H5           4.8420    -3.8780    -0.5990 ha         1 67Z       0.116000
     36 H6           3.3180    -3.9950    -3.8740 h1         1 67Z       0.038033
     37 H7           4.8190    -4.0030    -2.9320 h1         1 67Z       0.038033
     38 H8           3.3080    -4.5860    -2.2040 h1         1 67Z       0.038033
     39 H9           2.9270    -0.1930    -1.6610 ha         1 67Z       0.131000
     40 H10          3.3820     1.3060     1.6710 h1         1 67Z       0.082700
     41 H11          5.4100     2.2920     0.9190 hc         1 67Z       0.060200
     42 H12          5.1540     1.7650    -0.7410 hc         1 67Z       0.060200
     43 H13          3.6730     4.0180     0.6870 hc         1 67Z       0.056200
     44 H14          4.4900     4.0980    -0.8760 hc         1 67Z       0.056200
     45 H15          1.8280     3.6510    -0.7980 h1         1 67Z       0.052200
     46 H16          2.8050     2.7000    -1.9210 h1         1 67Z       0.052200
     47 H17         -0.1250     2.9000    -0.2380 h1         1 67Z       0.063700
     48 H18          0.2310     1.9340    -1.6580 h1         1 67Z       0.063700
     49 H19         -1.1570     0.3850     0.3320 hn         1 67Z       0.337500
     50 H20         -3.2770    -0.1700    -0.0900 hn         1 67Z       0.305500
     51 H21         -4.9640     1.9040    -1.3140 h1         1 67Z       0.054200
     52 H22         -4.7150     0.4210    -2.2190 h1         1 67Z       0.054200
     53 H23         -5.8900     1.6760     1.1150 ha         1 67Z       0.114000
     54 H24         -7.6160     0.5690     2.4480 ha         1 67Z       0.112500
     55 H25         -8.8600    -1.4830     2.8290 hn         1 67Z       0.447500
     56 H26         -8.9210    -2.7180     1.7120 hn         1 67Z       0.447500
     57 H27         -7.7200    -2.6500    -0.3850 ha         1 67Z       0.112500
     58 H28         -5.9940    -1.5290    -1.7100 ha         1 67Z       0.114000
@<TRIPOS>BOND
     1     1     2 1   
     2     1    31 1   
     3     1    32 1   
     4     1    33 1   
     5     2     3 1   
     6     3     4 ar  
     7     3    10 ar  
     8     4     5 ar  
     9     4    34 1   
    10     5     6 ar  
    11     5    35 1   
    12     6     7 1   
    13     6     9 ar  
    14     7     8 1   
    15     8    36 1   
    16     8    37 1   
    17     8    38 1   
    18     9    10 ar  
    19     9    39 1   
    20    10    11 1   
    21    11    12 1   
    22    11    15 1   
    23    11    40 1   
    24    12    13 1   
    25    12    41 1   
    26    12    42 1   
    27    13    14 1   
    28    13    43 1   
    29    13    44 1   
    30    14    15 1   
    31    14    45 1   
    32    14    46 1   
    33    15    16 1   
    34    16    17 2   
    35    16    18 1   
    36    18    19 1   
    37    18    47 1   
    38    18    48 1   
    39    19    20 1   
    40    19    49 1   
    41    20    21 2   
    42    20    22 1   
    43    22    23 1   
    44    22    50 1   
    45    23    24 1   
    46    23    51 1   
    47    23    52 1   
    48    24    25 ar  
    49    24    30 ar  
    50    25    26 ar  
    51    25    53 1   
    52    26    27 ar  
    53    26    54 1   
    54    27    28 1   
    55    27    29 ar  
    56    28    55 1   
    57    28    56 1   
    58    29    30 ar  
    59    29    57 1   
    60    30    58 1   
@<TRIPOS>SUBSTRUCTURE
     1 67Z         1 TEMP              0 ****  ****    0 ROOT
