@<TRIPOS>MOLECULE
680
   20    20     1     0     0
SMALL
bcc


@<TRIPOS>ATOM
      1 O3           2.6100     0.8650    -0.0250 o          1 680      -0.254000
      2 N3           2.0510    -0.2340    -0.0010 no         1 680       0.341100
      3 O2           2.7050    -1.2580     0.0190 o          1 680      -0.254000
      4 C2           0.6530    -0.2890     0.0020 cc         1 680      -0.515300
      5 C1          -0.1620     0.8960    -0.0310 cd         1 680       0.545600
      6 N2           0.3340     2.1220    -0.0590 nu         1 680      -0.712000
      7 C5          -0.4830     3.3120    -0.0890 c3         1 680       0.216100
      8 N1          -1.4990     0.8250    -0.0360 nd         1 680      -0.806300
      9 C4          -2.0830    -0.3490    -0.0030 cc         1 680       0.801800
     10 N5          -3.4050    -0.4190    -0.0140 nv         1 680      -0.935800
     11 N4          -1.3840    -1.5020     0.0390 ns         1 680      -0.526400
     12 C3           0.0070    -1.5800     0.0440 c          1 680       0.763700
     13 O1           0.5110    -2.6860     0.0840 o          1 680      -0.567500
     14 HN2          1.3380     2.2060    -0.0570 hn         1 680       0.498800
     15 H51         -1.1070     3.3500    -0.9810 h1         1 680       0.050033
     16 H52         -1.1310     3.3780     0.7840 h1         1 680       0.050033
     17 H53          0.1830     4.1700    -0.0930 h1         1 680       0.050033
     18 HN51        -3.9030    -1.2920     0.0350 hn         1 680       0.461800
     19 HN52        -3.9420     0.4320    -0.0260 hn         1 680       0.461800
     20 HN4         -1.8720    -2.3870     0.0730 hn         1 680       0.330500
@<TRIPOS>BOND
     1     1     2 1   
     2     2     3 1   
     3     2     4 1   
     4     4     5 2   
     5     4    12 1   
     6     5     6 1   
     7     5     8 1   
     8     6     7 1   
     9     6    14 1   
    10     7    15 1   
    11     7    16 1   
    12     7    17 1   
    13     8     9 2   
    14     9    10 1   
    15     9    11 1   
    16    10    18 1   
    17    10    19 1   
    18    11    12 1   
    19    11    20 1   
    20    12    13 2   
@<TRIPOS>SUBSTRUCTURE
     1 680         1 TEMP              0 ****  ****    0 ROOT
