@<TRIPOS>MOLECULE
680
   20    20     1     0     0
SMALL
No Charge or Current Charge


@<TRIPOS>ATOM
      1 O3           2.5150     0.5030     0.8660 o          1 680      -0.444000
      2 N3           1.9830    -0.2970     0.0900 no         1 680       0.721100
      3 O2           2.5760    -0.8290    -0.8520 o          1 680      -0.444000
      4 C2           0.5690    -0.2720     0.0230 cc         1 680      -0.515300
      5 C1          -0.2030     0.8520    -0.0730 cd         1 680       0.545600
      6 N2           0.3060     2.1030    -0.1220 nu         1 680      -0.767200
      7 C5          -0.4420     3.3730    -0.1780 c3         1 680       0.216100
      8 N1          -1.5750     0.7940    -0.1490 nd         1 680      -0.806300
      9 C4          -2.0500    -0.4090    -0.0960 cc         1 680       0.801800
     10 N5          -3.3570    -0.5060    -0.1560 nv         1 680      -1.046200
     11 N4          -1.3720    -1.5420     0.0330 ns         1 680      -0.459400
     12 C3          -0.0380    -1.5850     0.1060 c          1 680       0.621200
     13 O1           0.5560    -2.6410     0.2420 o          1 680      -0.492000
     14 HN2          1.2970     2.1460     0.1180 hn         1 680       0.554000
     15 H51         -1.0580     3.4170    -1.0860 h1         1 680       0.050033
     16 H52         -1.0990     3.4730     0.6950 h1         1 680       0.050033
     17 H53          0.2490     4.2260    -0.1900 h1         1 680       0.050033
     18 HN51        -3.7690    -1.2250     0.4250 hn         1 680       0.517000
     19 HN52        -3.8040     0.3970    -0.0800 hn         1 680       0.517000
     20 HN4         -1.8620    -2.4190     0.0490 hn         1 680       0.330500
@<TRIPOS>BOND
     1     1     2 1   
     2     2     3 1   
     3     2     4 1   
     4     4     5 2   
     5     4    12 1   
     6     5     6 1   
     7     5     8 1   
     8     6     7 1   
     9     6    14 1   
    10     7    15 1   
    11     7    16 1   
    12     7    17 1   
    13     8     9 2   
    14     9    10 1   
    15     9    11 1   
    16    10    18 1   
    17    10    19 1   
    18    11    12 1   
    19    11    20 1   
    20    12    13 2   
@<TRIPOS>SUBSTRUCTURE
     1 680         1 TEMP              0 ****  ****    0 ROOT
