@<TRIPOS>MOLECULE
681
   63    65     1     0     0
SMALL
bcc


@<TRIPOS>ATOM
      1 C1           2.5970    -0.0920     2.3160 c3         1 681       0.131800
      2 O1           3.6230    -0.8570     2.8730 oh         1 681      -0.568800
      3 C2           1.2840    -0.5030     2.9140 cc         1 681       0.414700
      4 N1           0.9830    -1.6570     3.3840 nd         1 681      -0.360000
      5 O2           0.2500     0.3460     2.9860 os         1 681      -0.363800
      6 N2          -0.3270    -1.5880     3.7810 nd         1 681      -0.362000
      7 C3          -0.7350    -0.3960     3.5260 cc         1 681       0.481700
      8 C4          -2.1080     0.1690     3.7310 c3         1 681      -0.062300
      9 C5          -2.5810    -0.2100     5.1380 c3         1 681      -0.085767
     10 C6          -2.1120     1.6890     3.5740 c3         1 681      -0.085767
     11 C7          -3.0410    -0.4660     2.6890 c3         1 681      -0.085767
     12 CVA          2.5300    -0.1870     0.7720 c3         1 681       0.082700
     13 CVB          3.8560     0.1020     0.0410 c3         1 681      -0.068700
     14 CV1          4.5530     1.3710     0.5250 c3         1 681      -0.090100
     15 CV2          4.8130    -1.0860     0.0200 c3         1 681      -0.090100
     16 NV           1.5190     0.7310     0.2850 ns         1 681      -0.569900
     17 COG          0.2580     0.3860    -0.0020 c          1 681       0.660100
     18 OCG         -0.2250    -0.7140     0.2020 o          1 681      -0.584100
     19 CAG         -0.5720     1.5210    -0.5840 c3         1 681      -0.009000
     20 N2X         -1.5970     0.9970    -1.4690 n          1 681      -0.354300
     21 C1X         -1.2480     0.2000    -2.5330 cc         1 681       0.515500
     22 N1X         -2.1180    -0.4480    -3.2240 nd         1 681      -0.582300
     23 C2X         -3.4330    -0.3270    -2.9050 cd         1 681       0.023600
     24 C3X         -3.8910     0.4870    -1.9150 cc         1 681      -0.003200
     25 C4X         -2.9180     1.2030    -1.1100 c          1 681       0.692700
     26 O1X         -3.2330     1.9190    -0.1680 o          1 681      -0.640500
     27 N3X         -5.2110     0.7100    -1.6230 nv         1 681      -0.804600
     28 C5X          0.1810     0.0960    -2.9110 ca         1 681      -0.137900
     29 C6X          0.8000    -1.1510    -2.9070 ca         1 681      -0.093000
     30 C7X          2.1290    -1.2710    -3.2860 ca         1 681      -0.137500
     31 C8X          2.8440    -0.1490    -3.6830 ca         1 681      -0.115000
     32 C9X          2.2260     1.0940    -3.7030 ca         1 681      -0.137500
     33 C0X          0.9000     1.2180    -3.3180 ca         1 681      -0.093000
     34 H11          2.7920     0.9480     2.5920 h1         1 681       0.093700
     35 HO1          3.4750    -1.7880     2.6720 ho         1 681       0.428000
     36 H51         -3.5950     0.1580     5.2940 hc         1 681       0.045700
     37 H52         -2.5890    -1.2900     5.2790 hc         1 681       0.045700
     38 H53         -1.9420     0.2310     5.9050 hc         1 681       0.045700
     39 H61         -1.4350     2.1750     4.2780 hc         1 681       0.045700
     40 H62         -1.8450     2.0020     2.5640 hc         1 681       0.045700
     41 H63         -3.1170     2.0630     3.7720 hc         1 681       0.045700
     42 H71         -3.0560    -1.5520     2.7870 hc         1 681       0.045700
     43 H72         -4.0580    -0.0990     2.8330 hc         1 681       0.045700
     44 H73         -2.7340    -0.2170     1.6740 hc         1 681       0.045700
     45 HVA1         2.2050    -1.1970     0.5040 h1         1 681       0.086700
     46 HVB1         3.5540     0.2660    -0.9990 hc         1 681       0.052700
     47 HV11         5.3910     1.6100    -0.1300 hc         1 681       0.040033
     48 HV12         3.8940     2.2420     0.5260 hc         1 681       0.040033
     49 HV13         4.9510     1.2570     1.5340 hc         1 681       0.040033
     50 HV21         5.2440    -1.2930     0.9970 hc         1 681       0.040033
     51 HV22         4.3120    -1.9890    -0.3340 hc         1 681       0.040033
     52 HV23         5.6350    -0.8800    -0.6660 hc         1 681       0.040033
     53 HNV1         1.8210     1.6650     0.0510 hn         1 681       0.316500
     54 HAG1        -1.0720     2.0350     0.2360 h1         1 681       0.088700
     55 HAG2         0.0410     2.2660    -1.0890 h1         1 681       0.088700
     56 H2X1        -4.1250    -0.9080    -3.5050 h4         1 681       0.163000
     57 H3X1        -5.8560     0.0040    -1.9410 hn         1 681       0.406300
     58 H3X2        -5.3990     1.0060    -0.6780 hn         1 681       0.406300
     59 H6X1         0.2450    -2.0250    -2.5930 ha         1 681       0.145500
     60 H7X1         2.6070    -2.2420    -3.2690 ha         1 681       0.136500
     61 H8X1         3.8820    -0.2450    -3.9750 ha         1 681       0.134000
     62 H9X1         2.7740     1.9710    -4.0230 ha         1 681       0.136500
     63 H0X1         0.4220     2.1890    -3.3500 ha         1 681       0.145500
@<TRIPOS>BOND
     1     1     2 1   
     2     1     3 1   
     3     1    12 1   
     4     1    34 1   
     5     2    35 1   
     6     3     4 2   
     7     3     5 1   
     8     4     6 1   
     9     5     7 1   
    10     6     7 2   
    11     7     8 1   
    12     8     9 1   
    13     8    10 1   
    14     8    11 1   
    15     9    36 1   
    16     9    37 1   
    17     9    38 1   
    18    10    39 1   
    19    10    40 1   
    20    10    41 1   
    21    11    42 1   
    22    11    43 1   
    23    11    44 1   
    24    12    13 1   
    25    12    16 1   
    26    12    45 1   
    27    13    14 1   
    28    13    15 1   
    29    13    46 1   
    30    14    47 1   
    31    14    48 1   
    32    14    49 1   
    33    15    50 1   
    34    15    51 1   
    35    15    52 1   
    36    16    17 1   
    37    16    53 1   
    38    17    18 2   
    39    17    19 1   
    40    19    20 1   
    41    19    54 1   
    42    19    55 1   
    43    20    21 1   
    44    20    25 1   
    45    21    22 2   
    46    21    28 1   
    47    22    23 1   
    48    23    24 2   
    49    23    56 1   
    50    24    25 1   
    51    24    27 1   
    52    25    26 2   
    53    27    57 1   
    54    27    58 1   
    55    28    29 ar  
    56    28    33 ar  
    57    29    30 ar  
    58    29    59 1   
    59    30    31 ar  
    60    30    60 1   
    61    31    32 ar  
    62    31    61 1   
    63    32    33 ar  
    64    32    62 1   
    65    33    63 1   
@<TRIPOS>SUBSTRUCTURE
     1 681         1 TEMP              0 ****  ****    0 ROOT
