@<TRIPOS>MOLECULE
681
   63    65     1     0     0
SMALL
No Charge or Current Charge


@<TRIPOS>ATOM
      1 C1           2.6830    -0.1910     2.4540 c3         1 681       0.155000
      2 O1           3.7500    -1.0300     2.9560 oh         1 681      -0.631000
      3 C2           1.3430    -0.6040     3.0480 cc         1 681       0.370300
      4 N1           0.9920    -1.8100     3.4700 nd         1 681      -0.360000
      5 O2           0.3410     0.3060     3.1510 os         1 681      -0.275000
      6 N2          -0.3220    -1.7090     3.8510 nd         1 681      -0.362000
      7 C3          -0.6770    -0.4500     3.6390 cc         1 681       0.437300
      8 C4          -2.0660     0.1570     3.8110 c3         1 681      -0.062300
      9 C5          -2.6080    -0.1590     5.2310 c3         1 681      -0.085767
     10 C6          -2.0350     1.7010     3.6260 c3         1 681      -0.085767
     11 C7          -3.0200    -0.4520     2.7500 c3         1 681      -0.085767
     12 CVA          2.6490    -0.1850     0.8850 c3         1 681       0.082700
     13 CVB          3.9750     0.1930     0.1430 c3         1 681      -0.068700
     14 CV1          4.5840     1.5400     0.6080 c3         1 681      -0.090100
     15 CV2          5.0400    -0.9320     0.1260 c3         1 681      -0.090100
     16 NV           1.5780     0.6960     0.3870 ns         1 681      -0.502900
     17 COG          0.3370     0.2720    -0.0390 c          1 681       0.593100
     18 OCG         -0.0200    -0.8940     0.0500 o          1 681      -0.584100
     19 CAG         -0.5620     1.3830    -0.6100 c3         1 681      -0.009000
     20 N2X         -1.6600     0.8970    -1.5130 n          1 681      -0.287300
     21 C1X         -1.3790     0.1810    -2.6810 cc         1 681       0.515500
     22 N1X         -2.2800    -0.4040    -3.4760 nd         1 681      -0.582300
     23 C2X         -3.6310    -0.2540    -3.1530 cd         1 681      -0.026400
     24 C3X         -3.9910     0.4900    -2.0470 cc         1 681      -0.003200
     25 C4X         -2.9840     1.1260    -1.1390 c          1 681       0.550200
     26 O1X         -3.2890     1.7840    -0.1470 o          1 681      -0.565000
     27 N3X         -5.3180     0.6970    -1.6820 nv         1 681      -0.915000
     28 C5X          0.0280     0.0520    -3.0850 ca         1 681      -0.137900
     29 C6X          0.6430    -1.2180    -3.1060 ca         1 681      -0.075000
     30 C7X          1.9970    -1.3490    -3.4630 ca         1 681      -0.119500
     31 C8X          2.7440    -0.2150    -3.8190 ca         1 681      -0.097000
     32 C9X          2.1340     1.0500    -3.8280 ca         1 681      -0.119500
     33 C0X          0.7810     1.1830    -3.4700 ca         1 681      -0.075000
     34 H11          2.8590     0.8430     2.7780 h1         1 681       0.093700
     35 HO1          3.3880    -1.9420     3.0320 ho         1 681       0.467000
     36 H51         -3.6030     0.2770     5.3790 hc         1 681       0.045700
     37 H52         -2.6890    -1.2410     5.3920 hc         1 681       0.045700
     38 H53         -1.9410     0.2480     6.0020 hc         1 681       0.045700
     39 H61         -1.3580     2.1690     4.3520 hc         1 681       0.045700
     40 H62         -1.6950     1.9720     2.6190 hc         1 681       0.045700
     41 H63         -3.0330     2.1340     3.7680 hc         1 681       0.045700
     42 H71         -3.1110    -1.5380     2.8800 hc         1 681       0.045700
     43 H72         -4.0250    -0.0180     2.8250 hc         1 681       0.045700
     44 H73         -2.6440    -0.2670     1.7370 hc         1 681       0.045700
     45 HVA1         2.3990    -1.2080     0.5700 h1         1 681       0.086700
     46 HVB1         3.7000     0.3300    -0.9120 hc         1 681       0.052700
     47 HV11         5.4350     1.8150    -0.0260 hc         1 681       0.040033
     48 HV12         3.8480     2.3500     0.5480 hc         1 681       0.040033
     49 HV13         4.9420     1.4750     1.6420 hc         1 681       0.040033
     50 HV21         5.5290    -1.0440     1.0990 hc         1 681       0.040033
     51 HV22         4.5900    -1.8920    -0.1530 hc         1 681       0.040033
     52 HV23         5.8210    -0.7030    -0.6090 hc         1 681       0.040033
     53 HNV1         1.7830     1.6830     0.2800 hn         1 681       0.316500
     54 HAG1        -0.9610     1.9270     0.2540 h1         1 681       0.088700
     55 HAG2         0.0710     2.0940    -1.1520 h1         1 681       0.088700
     56 H2X1        -4.3620    -0.7280    -3.8060 h4         1 681       0.213000
     57 H3X1        -6.0940     0.3140    -2.2230 hn         1 681       0.461500
     58 H3X2        -5.5420     1.2530    -0.8550 hn         1 681       0.461500
     59 H6X1         0.0750    -2.1020    -2.8240 ha         1 681       0.127500
     60 H7X1         2.4660    -2.3310    -3.4620 ha         1 681       0.118500
     61 H8X1         3.7920    -0.3170    -4.0940 ha         1 681       0.116000
     62 H9X1         2.7090     1.9280    -4.1140 ha         1 681       0.118500
     63 H0X1         0.3170     2.1680    -3.4910 ha         1 681       0.127500
@<TRIPOS>BOND
     1     1     2 1   
     2     1     3 1   
     3     1    12 1   
     4     1    34 1   
     5     2    35 1   
     6     3     4 2   
     7     3     5 1   
     8     4     6 1   
     9     5     7 1   
    10     6     7 2   
    11     7     8 1   
    12     8     9 1   
    13     8    10 1   
    14     8    11 1   
    15     9    36 1   
    16     9    37 1   
    17     9    38 1   
    18    10    39 1   
    19    10    40 1   
    20    10    41 1   
    21    11    42 1   
    22    11    43 1   
    23    11    44 1   
    24    12    13 1   
    25    12    16 1   
    26    12    45 1   
    27    13    14 1   
    28    13    15 1   
    29    13    46 1   
    30    14    47 1   
    31    14    48 1   
    32    14    49 1   
    33    15    50 1   
    34    15    51 1   
    35    15    52 1   
    36    16    17 1   
    37    16    53 1   
    38    17    18 2   
    39    17    19 1   
    40    19    20 1   
    41    19    54 1   
    42    19    55 1   
    43    20    21 1   
    44    20    25 1   
    45    21    22 2   
    46    21    28 1   
    47    22    23 1   
    48    23    24 2   
    49    23    56 1   
    50    24    25 1   
    51    24    27 1   
    52    25    26 2   
    53    27    57 1   
    54    27    58 1   
    55    28    29 ar  
    56    28    33 ar  
    57    29    30 ar  
    58    29    59 1   
    59    30    31 ar  
    60    30    60 1   
    61    31    32 ar  
    62    31    61 1   
    63    32    33 ar  
    64    32    62 1   
    65    33    63 1   
@<TRIPOS>SUBSTRUCTURE
     1 681         1 TEMP              0 ****  ****    0 ROOT
