@<TRIPOS>MOLECULE
683
   31    32     1     0     0
SMALL
No Charge or Current Charge


@<TRIPOS>ATOM
      1 OX1          0.9760    -2.5730     0.2450 o          1 683      -0.718000
      2 CY1          1.9000    -1.9080     0.6890 c          1 683       0.708600
      3 OX2          2.6890    -2.3300     1.5230 o          1 683      -0.718000
      4 CY2          2.1200    -0.5280     0.1380 ca         1 683      -0.184600
      5 CY3          3.4420    -0.0780    -0.0850 ca         1 683      -0.061000
      6 CY4          3.6910     1.2070    -0.5990 ca         1 683      -0.185300
      7 C4           5.1190     1.6730    -0.8410 c3         1 683      -0.011800
      8 CY5          2.6100     2.0500    -0.9010 ca         1 683      -0.104000
      9 CY6          1.2960     1.6120    -0.6760 ca         1 683      -0.210000
     10 CY0          1.0380     0.3330    -0.1450 ca         1 683       0.363000
     11 N1          -0.2820    -0.0650     0.0640 nu         1 683      -0.970000
     12 CX2         -1.4690     0.6150     0.3310 ca         1 683       0.366000
     13 CX3         -1.4160     1.8560     0.9970 ca         1 683      -0.219000
     14 CX4         -2.5880     2.5720     1.2840 ca         1 683      -0.108000
     15 CX5         -3.8300     2.0450     0.9100 ca         1 683      -0.216000
     16 CX6         -3.8990     0.8030     0.2600 ca         1 683      -0.066000
     17 CX1         -2.7230     0.0730    -0.0270 ca         1 683      -0.192600
     18 CX0         -2.8340    -1.2530    -0.7240 c          1 683       0.708600
     19 OY1         -2.0970    -2.1610    -0.3700 o          1 683      -0.719000
     20 OY2         -3.6960    -1.3850    -1.5810 o          1 683      -0.719000
     21 H2           4.2800    -0.7360     0.1370 ha         1 683       0.114000
     22 H3           5.4610     1.3780    -1.8400 hc         1 683       0.009367
     23 H4           5.2030     2.7640    -0.7660 hc         1 683       0.009367
     24 H5           5.8100     1.2380    -0.1090 hc         1 683       0.009367
     25 H6           2.7850     3.0410    -1.3120 ha         1 683       0.066000
     26 H7           0.4730     2.2730    -0.9310 ha         1 683       0.101000
     27 H8          -0.4090    -1.0910     0.0070 hn         1 683       0.596000
     28 H9          -0.4610     2.2690     1.3070 ha         1 683       0.100000
     29 H10         -2.5320     3.5290     1.7970 ha         1 683       0.065000
     30 H11         -4.7420     2.5940     1.1300 ha         1 683       0.069000
     31 H12         -4.8720     0.4010    -0.0170 ha         1 683       0.113000
@<TRIPOS>BOND
     1     1     2 1   
     2     2     3 1   
     3     2     4 1   
     4     4     5 ar  
     5     4    10 ar  
     6     5     6 ar  
     7     5    21 1   
     8     6     7 1   
     9     6     8 ar  
    10     7    22 1   
    11     7    23 1   
    12     7    24 1   
    13     8     9 ar  
    14     8    25 1   
    15     9    10 ar  
    16     9    26 1   
    17    10    11 1   
    18    11    12 1   
    19    11    27 1   
    20    12    13 ar  
    21    12    17 ar  
    22    13    14 ar  
    23    13    28 1   
    24    14    15 ar  
    25    14    29 1   
    26    15    16 ar  
    27    15    30 1   
    28    16    17 ar  
    29    16    31 1   
    30    17    18 1   
    31    18    19 1   
    32    18    20 1   
@<TRIPOS>SUBSTRUCTURE
     1 683         1 TEMP              0 ****  ****    0 ROOT
