@<TRIPOS>MOLECULE
683
   31    32     1     0     0
SMALL
bcc


@<TRIPOS>ATOM
      1 OX1          0.9230    -2.5590     0.5220 o          1 683      -0.823300
      2 CY1          1.9990    -1.9540     0.7160 c          1 683       0.919200
      3 OX2          3.0010    -2.4170     1.2940 o          1 683      -0.823300
      4 CY2          2.1100    -0.5360     0.1770 ca         1 683      -0.184600
      5 CY3          3.3900    -0.0150    -0.0170 ca         1 683      -0.079000
      6 CY4          3.6340     1.2480    -0.5380 ca         1 683      -0.185300
      7 C4           5.0310     1.7530    -0.7580 c3         1 683      -0.011800
      8 CY5          2.5230     2.0170    -0.8780 ca         1 683      -0.122000
      9 CY6          1.2400     1.5390    -0.6950 ca         1 683      -0.228000
     10 CY0          0.9970     0.2680    -0.1530 ca         1 683       0.224600
     11 N1          -0.2990    -0.1920     0.0070 nu         1 683      -0.638000
     12 CX2         -1.4230     0.5600     0.2710 ca         1 683       0.227600
     13 CX3         -1.3210     1.8020     0.9220 ca         1 683      -0.237000
     14 CX4         -2.4380     2.5620     1.2120 ca         1 683      -0.126000
     15 CX5         -3.7050     2.1080     0.8650 ca         1 683      -0.234000
     16 CX6         -3.8170     0.8790     0.2370 ca         1 683      -0.084000
     17 CX1         -2.7130     0.0820    -0.0650 ca         1 683      -0.192600
     18 CX0         -2.9700    -1.2630    -0.7250 c          1 683       0.919200
     19 OY1         -2.0530    -2.1120    -0.6820 o          1 683      -0.824300
     20 OY2         -4.0880    -1.4290    -1.2490 o          1 683      -0.824300
     21 H2           4.2310    -0.6380     0.2620 ha         1 683       0.132000
     22 H3           5.3530     1.6070    -1.7920 hc         1 683       0.009367
     23 H4           5.1110     2.8210    -0.5490 hc         1 683       0.009367
     24 H5           5.7480     1.2360    -0.1210 hc         1 683       0.009367
     25 H6           2.6590     3.0050    -1.3050 ha         1 683       0.084000
     26 H7           0.4070     2.1610    -0.9930 ha         1 683       0.119000
     27 H8          -0.4400    -1.1980    -0.0650 hn         1 683       0.540800
     28 H9          -0.3500     2.1680     1.2240 ha         1 683       0.118000
     29 H10         -2.3140     3.5080     1.7240 ha         1 683       0.083000
     30 H11         -4.5870     2.6960     1.0850 ha         1 683       0.087000
     31 H12         -4.7960     0.5090    -0.0360 ha         1 683       0.131000
@<TRIPOS>BOND
     1     1     2 1   
     2     2     3 1   
     3     2     4 1   
     4     4     5 ar  
     5     4    10 ar  
     6     5     6 ar  
     7     5    21 1   
     8     6     7 1   
     9     6     8 ar  
    10     7    22 1   
    11     7    23 1   
    12     7    24 1   
    13     8     9 ar  
    14     8    25 1   
    15     9    10 ar  
    16     9    26 1   
    17    10    11 1   
    18    11    12 1   
    19    11    27 1   
    20    12    13 ar  
    21    12    17 ar  
    22    13    14 ar  
    23    13    28 1   
    24    14    15 ar  
    25    14    29 1   
    26    15    16 ar  
    27    15    30 1   
    28    16    17 ar  
    29    16    31 1   
    30    17    18 1   
    31    18    19 1   
    32    18    20 1   
@<TRIPOS>SUBSTRUCTURE
     1 683         1 TEMP              0 ****  ****    0 ROOT
