@<TRIPOS>MOLECULE
684
   57    61     1     0     0
SMALL
No Charge or Current Charge


@<TRIPOS>ATOM
      1 N1          18.7870    11.0860    11.8500 nb         1 684      -0.257000
      2 C2          18.0210    11.1070    10.7520 ca         1 684       0.436900
      3 N2          17.2520    12.2020    10.5760 nv         1 684      -1.064900
      4 N3          17.9250    10.1810     9.8020 nb         1 684      -0.352000
      5 C4          18.6930     9.1040     9.9810 ca         1 684       0.458900
      6 N4          18.5750     8.1700     8.9920 nv         1 684      -1.068900
      7 N5          20.3220     7.8150    11.2700 nb         1 684      -0.622000
      8 C6          21.1000     7.7600    12.3780 ca         1 684       0.248300
      9 C7          21.1210     8.8170    13.3070 ca         1 684       0.114900
     10 N8          20.3650     9.9200    13.1480 nb         1 684      -0.102000
     11 C9          21.9480     6.5080    12.5840 c3         1 684       0.028300
     12 N10         21.7530     5.8510    13.8950 na         1 684      -0.159600
     13 C4A         19.5550     8.9340    11.1030 ca         1 684       0.029000
     14 C8A         19.5700    10.0040    12.0560 ca         1 684       0.116000
     15 OAC         13.7560    10.1730    16.1830 o          1 684      -0.738000
     16 OAD         15.6910    10.7340    16.9450 o          1 684      -0.738000
     17 CAE         25.1270     4.5360    16.0090 ca         1 684      -0.133000
     18 CAF         24.7820     3.9370    14.7890 ca         1 684      -0.098000
     19 CAG         18.2070     4.8440    14.1250 ca         1 684      -0.133000
     20 CAH         24.3330     5.5680    16.5350 ca         1 684      -0.093000
     21 CAI         23.6460     4.3790    14.0960 ca         1 684      -0.159000
     22 CAJ         19.5350     4.9390    13.6830 ca         1 684      -0.113000
     23 CAK         22.4080     7.0980    16.4720 cc         1 684      -0.114000
     24 CAL         21.0230     7.1170    16.4500 cd         1 684      -0.064000
     25 CAN         18.7500     6.2460    16.0330 ca         1 684      -0.162000
     26 CAO         15.6650     7.6050    16.2580 c3         1 684      -0.088400
     27 CAP         15.8800     6.1500    16.7370 c3         1 684       0.152600
     28 CAQ         14.9890     8.4990    17.3290 c3         1 684      -0.203400
     29 CAX         14.7880     9.9260    16.7870 c          1 684       0.711000
     30 CBA         17.8020     5.5080    15.2920 ca         1 684       0.157100
     31 CBC         23.1800     6.0120    15.8560 ca         1 684      -0.035000
     32 CBD         20.0960     6.3220    15.6180 ca         1 684      -0.018000
     33 CBF         22.8470     5.4140    14.6200 ca         1 684       0.037800
     34 CBG         20.4780     5.6830    14.4160 ca         1 684      -0.035200
     35 HN2         17.4610    13.0280    11.1320 hn         1 684       0.502000
     36 HN2A        16.8460    12.3620     9.6570 hn         1 684       0.502000
     37 HN4         17.7390     8.1930     8.4170 hn         1 684       0.508000
     38 HN4A        18.9720     7.2540     9.1890 hn         1 684       0.508000
     39 H7          21.7520     8.7800    14.1930 h4         1 684       0.050100
     40 H9          21.7260     5.7760    11.7970 h1         1 684       0.048700
     41 H9A         23.0050     6.7870    12.4830 h1         1 684       0.048700
     42 HAE         26.0100     4.2000    16.5490 ha         1 684       0.108000
     43 HAF         25.3960     3.1380    14.3800 ha         1 684       0.105000
     44 HAG         17.4830     4.2710    13.5520 ha         1 684       0.124000
     45 HAH         24.6110     6.0220    17.4830 ha         1 684       0.111000
     46 HAI         23.3850     3.9190    13.1450 ha         1 684       0.110000
     47 HAJ         19.8260     4.4460    12.7580 ha         1 684       0.110000
     48 HAK         22.9090     7.7980    17.1330 ha         1 684       0.103000
     49 HAL         20.5640     7.8640    17.0880 ha         1 684       0.118000
     50 HAN         18.4610     6.7510    16.9490 ha         1 684       0.136000
     51 HAO         16.6260     8.0520    15.9770 hc         1 684       0.057200
     52 HAOA        15.0450     7.5930    15.3540 hc         1 684       0.057200
     53 HAP         16.4930     6.1200    17.6460 h1         1 684       0.041200
     54 HAPA        14.9010     5.7210    16.9900 h1         1 684       0.041200
     55 HAQ         14.0190     8.0300    17.5410 hc         1 684       0.017200
     56 HAQA        15.6720     8.5070    18.1870 hc         1 684       0.017200
     57 OAW         16.4770     5.3850    15.6700 os         1 684      -0.362100
@<TRIPOS>BOND
     1     1     2 ar  
     2     1    14 ar  
     3     2     3 1   
     4     2     4 ar  
     5     3    35 1   
     6     3    36 1   
     7     4     5 ar  
     8     5     6 1   
     9     5    13 ar  
    10     6    37 1   
    11     6    38 1   
    12     7     8 ar  
    13     7    13 ar  
    14     8     9 ar  
    15     8    11 1   
    16     9    10 ar  
    17     9    39 1   
    18    10    14 ar  
    19    11    12 1   
    20    11    40 1   
    21    11    41 1   
    22    12    33 1   
    23    12    34 1   
    24    13    14 ar  
    25    15    29 1   
    26    16    29 1   
    27    17    18 ar  
    28    17    20 ar  
    29    17    42 1   
    30    18    21 ar  
    31    18    43 1   
    32    19    22 ar  
    33    19    30 ar  
    34    19    44 1   
    35    20    31 ar  
    36    20    45 1   
    37    21    33 ar  
    38    21    46 1   
    39    22    34 ar  
    40    22    47 1   
    41    23    24 2   
    42    23    31 1   
    43    23    48 1   
    44    24    32 1   
    45    24    49 1   
    46    25    30 ar  
    47    25    32 ar  
    48    25    50 1   
    49    26    27 1   
    50    26    28 1   
    51    26    51 1   
    52    26    52 1   
    53    27    53 1   
    54    27    54 1   
    55    27    57 1   
    56    28    29 1   
    57    28    55 1   
    58    28    56 1   
    59    30    57 1   
    60    31    33 ar  
    61    32    34 ar  
@<TRIPOS>SUBSTRUCTURE
     1 684         1 TEMP              0 ****  ****    0 ROOT
