@<TRIPOS>MOLECULE
684
   57    61     1     0     0
SMALL
abcg2


@<TRIPOS>ATOM
      1 N1          18.7990    11.0280    11.0860 nb         1 684      -0.257000
      2 C2          18.2210    10.9400     9.8880 ca         1 684       0.436900
      3 N2          17.4410    11.9690     9.4940 nv         1 684      -1.064900
      4 N3          18.3090     9.9100     9.0050 nb         1 684      -0.352000
      5 C4          19.0400     8.8660     9.3520 ca         1 684       0.458900
      6 N4          19.1590     7.8240     8.5240 nv         1 684      -1.068900
      7 N5          20.4540     7.7790    10.9890 nb         1 684      -0.622000
      8 C6          21.0430     7.8190    12.1690 ca         1 684       0.248300
      9 C7          20.8830     8.9510    13.0010 ca         1 684       0.114900
     10 N8          20.1610    10.0000    12.6670 nb         1 684      -0.102000
     11 C9          21.8940     6.6490    12.5890 c3         1 684       0.028300
     12 N10         21.7270     6.3610    14.0070 na         1 684      -0.159600
     13 C4A         19.7180     8.8390    10.6290 ca         1 684       0.029000
     14 C8A         19.5490     9.9710    11.4550 ca         1 684       0.116000
     15 OAC         14.4450    10.2290    17.2690 o          1 684      -0.738000
     16 OAD         14.5740    10.0560    19.4990 o          1 684      -0.738000
     17 CAE         24.9450     4.3770    15.8800 ca         1 684      -0.133000
     18 CAF         24.6490     4.1180    14.5460 ca         1 684      -0.098000
     19 CAG         18.1140     5.4330    14.0200 ca         1 684      -0.133000
     20 CAH         24.1480     5.2620    16.5940 ca         1 684      -0.093000
     21 CAI         23.5650     4.7440    13.9400 ca         1 684      -0.159000
     22 CAJ         19.4360     5.5540    13.6240 ca         1 684      -0.113000
     23 CAK         22.2610     6.8230    16.8170 cc         1 684      -0.114000
     24 CAL         20.9540     7.1090    16.7020 cd         1 684      -0.064000
     25 CAN         18.6680     6.4260    16.1350 ca         1 684      -0.162000
     26 CAO         15.6270     7.6680    16.8660 c3         1 684      -0.088400
     27 CAP         15.9040     6.1730    16.8560 c3         1 684       0.152600
     28 CAQ         15.0970     8.1170    18.2230 c3         1 684      -0.203400
     29 CAX         14.6780     9.5980    18.3310 c          1 684       0.711000
     30 CBA         17.7170     5.8720    15.2850 ca         1 684       0.157100
     31 CBC         23.0480     5.9000    16.0060 ca         1 684      -0.035000
     32 CBD         20.0100     6.5480    15.7430 ca         1 684      -0.018000
     33 CBF         22.7670     5.6420    14.6490 ca         1 684       0.037800
     34 CBG         20.3960     6.1210    14.4630 ca         1 684      -0.035200
     35 HN2         17.4300    12.8140    10.0390 hn         1 684       0.502000
     36 HN2A        17.0990    11.9930     8.5490 hn         1 684       0.502000
     37 HN4         18.6910     7.8270     7.6330 hn         1 684       0.508000
     38 HN4A        19.7170     7.0320     8.7970 hn         1 684       0.508000
     39 H7          21.3680     8.9670    13.9700 h4         1 684       0.050100
     40 H9          21.6670     5.8070    11.9250 h1         1 684       0.048700
     41 H9A         22.9470     6.8970    12.4350 h1         1 684       0.048700
     42 HAE         25.7920     3.9020    16.3580 ha         1 684       0.108000
     43 HAF         25.2620     3.4350    13.9720 ha         1 684       0.105000
     44 HAG         17.3750     5.0090    13.3520 ha         1 684       0.124000
     45 HAH         24.3780     5.4800    17.6300 ha         1 684       0.111000
     46 HAI         23.3460     4.5390    12.9010 ha         1 684       0.110000
     47 HAJ         19.7150     5.2220    12.6340 ha         1 684       0.110000
     48 HAK         22.7890     7.2480    17.6650 ha         1 684       0.103000
     49 HAL         20.5150     7.7460    17.4630 ha         1 684       0.118000
     50 HAN         18.3950     6.7830    17.1170 ha         1 684       0.136000
     51 HAO         16.5400     8.2190    16.6240 hc         1 684       0.057200
     52 HAOA        14.9020     7.8990    16.0850 hc         1 684       0.057200
     53 HAP         16.5940     5.8860    17.6540 h1         1 684       0.041200
     54 HAPA        14.9760     5.6190    17.0050 h1         1 684       0.041200
     55 HAQ         14.2130     7.5240    18.4890 hc         1 684       0.017200
     56 HAQA        15.8360     7.9180    19.0040 hc         1 684       0.017200
     57 OAW         16.4000     5.7060    15.5910 os         1 684      -0.362100
@<TRIPOS>BOND
     1     1     2 ar  
     2     1    14 ar  
     3     2     3 1   
     4     2     4 ar  
     5     3    35 1   
     6     3    36 1   
     7     4     5 ar  
     8     5     6 1   
     9     5    13 ar  
    10     6    37 1   
    11     6    38 1   
    12     7     8 ar  
    13     7    13 ar  
    14     8     9 ar  
    15     8    11 1   
    16     9    10 ar  
    17     9    39 1   
    18    10    14 ar  
    19    11    12 1   
    20    11    40 1   
    21    11    41 1   
    22    12    33 1   
    23    12    34 1   
    24    13    14 ar  
    25    15    29 1   
    26    16    29 1   
    27    17    18 ar  
    28    17    20 ar  
    29    17    42 1   
    30    18    21 ar  
    31    18    43 1   
    32    19    22 ar  
    33    19    30 ar  
    34    19    44 1   
    35    20    31 ar  
    36    20    45 1   
    37    21    33 ar  
    38    21    46 1   
    39    22    34 ar  
    40    22    47 1   
    41    23    24 2   
    42    23    31 1   
    43    23    48 1   
    44    24    32 1   
    45    24    49 1   
    46    25    30 ar  
    47    25    32 ar  
    48    25    50 1   
    49    26    27 1   
    50    26    28 1   
    51    26    51 1   
    52    26    52 1   
    53    27    53 1   
    54    27    54 1   
    55    27    57 1   
    56    28    29 1   
    57    28    55 1   
    58    28    56 1   
    59    30    57 1   
    60    31    33 ar  
    61    32    34 ar  
@<TRIPOS>SUBSTRUCTURE
     1 684         1 TEMP              0 ****  ****    0 ROOT
