@<TRIPOS>MOLECULE
685
   51    53     1     0     0
SMALL
bcc


@<TRIPOS>ATOM
      1 C1          -6.7460    -1.6970    -1.2220 c3         1 685      -0.109100
      2 C2          -5.7960    -1.9090    -0.0480 c3         1 685       0.115700
      3 C4          -5.2560    -3.3280     0.0280 c3         1 685       0.123400
      4 O5          -4.4880    -3.5830    -1.1270 oh         1 685      -0.605800
      5 N6          -4.6730    -0.9880    -0.0910 ns         1 685      -0.568900
      6 C7          -4.7210     0.2600     0.4030 c          1 685       0.713700
      7 O8          -5.7060     0.7440     0.9410 o          1 685      -0.593100
      8 C9          -3.4670     1.0400     0.2800 cc         1 685      -0.261000
      9 S10         -1.9140     0.3010     0.2710 ss         1 685      -0.055300
     10 C11         -1.2110     1.8600     0.1500 cc         1 685       0.357400
     11 N12         -2.0580     2.8410     0.1240 nd         1 685      -0.642000
     12 C13         -3.3440     2.4060     0.2030 cd         1 685       0.426600
     13 C14         -4.4490     3.4080     0.1940 c3         1 685      -0.124400
     14 C15          0.2420     2.0040     0.0940 ca         1 685       0.452300
     15 C16          0.8510     3.2480    -0.0280 ca         1 685      -0.374600
     16 C17          2.2320     3.2250    -0.0750 ca         1 685       0.473200
     17 N18          2.9460     2.1100    -0.0040 nb         1 685      -0.750000
     18 C19          2.2640     0.9740     0.1170 ca         1 685       0.922900
     19 N20          2.9100    -0.2170     0.2050 nu         1 685      -0.733300
     20 C21          4.2640    -0.5460     0.2120 ca         1 685       0.182600
     21 C22          5.3090     0.3670     0.0810 ca         1 685      -0.174000
     22 C23          6.6310    -0.0770     0.0940 ca         1 685      -0.043800
     23 C24          7.7490     0.9190    -0.0210 c3         1 685      -0.048300
     24 C25          6.9050    -1.4310     0.2360 ca         1 685      -0.157000
     25 C26          5.8720    -2.3570     0.3730 ca         1 685      -0.043800
     26 C27          6.1740    -3.8160     0.5610 c3         1 685      -0.048300
     27 C28          4.5610    -1.9060     0.3560 ca         1 685      -0.174000
     28 N29          0.9310     0.8790     0.1650 nb         1 685      -0.792000
     29 H1          -6.2400    -1.8340    -2.1780 hc         1 685       0.046700
     30 H1A         -7.5770    -2.4020    -1.1730 hc         1 685       0.046700
     31 H1B         -7.1630    -0.6900    -1.2010 hc         1 685       0.046700
     32 H2          -6.3370    -1.7300     0.8820 h1         1 685       0.076700
     33 H4          -4.6580    -3.4310     0.9410 h1         1 685       0.031200
     34 H4A         -6.1060    -4.0160     0.1130 h1         1 685       0.031200
     35 HO5         -4.0050    -4.4040    -0.9980 ho         1 685       0.408000
     36 HN6         -3.9060    -1.2530    -0.6910 hn         1 685       0.326500
     37 H14         -4.7710     3.6410     1.2090 hc         1 685       0.060033
     38 H14A        -4.1020     4.3310    -0.2680 hc         1 685       0.060033
     39 H14B        -5.3200     3.0520    -0.3500 hc         1 685       0.060033
     40 H16          0.2870     4.1660    -0.0870 ha         1 685       0.177000
     41 H17          2.7930     4.1470    -0.1760 h4         1 685       0.027100
     42 HN20         2.2800    -0.9990     0.3000 hn         1 685       0.452800
     43 H22          5.1040     1.4180    -0.0380 ha         1 685       0.146500
     44 H24          8.0810     1.2470     0.9670 hc         1 685       0.042700
     45 H24A         8.6150     0.4940    -0.5270 hc         1 685       0.042700
     46 H24B         7.4400     1.8080    -0.5700 hc         1 685       0.042700
     47 H25          7.9340    -1.7740     0.2390 ha         1 685       0.130000
     48 H27          6.4430    -4.0260     1.5980 hc         1 685       0.042700
     49 H27A         5.3160    -4.4400     0.3140 hc         1 685       0.042700
     50 H27B         7.0130    -4.1330    -0.0580 hc         1 685       0.042700
     51 H28          3.7520    -2.6220     0.4500 ha         1 685       0.146500
@<TRIPOS>BOND
     1     1     2 1   
     2     1    29 1   
     3     1    30 1   
     4     1    31 1   
     5     2     3 1   
     6     2     5 1   
     7     2    32 1   
     8     3     4 1   
     9     3    33 1   
    10     3    34 1   
    11     4    35 1   
    12     5     6 1   
    13     5    36 1   
    14     6     7 2   
    15     6     8 1   
    16     8     9 1   
    17     8    12 2   
    18     9    10 1   
    19    10    11 2   
    20    10    14 1   
    21    11    12 1   
    22    12    13 1   
    23    13    37 1   
    24    13    38 1   
    25    13    39 1   
    26    14    15 ar  
    27    14    28 ar  
    28    15    16 ar  
    29    15    40 1   
    30    16    17 ar  
    31    16    41 1   
    32    17    18 ar  
    33    18    19 1   
    34    18    28 ar  
    35    19    20 1   
    36    19    42 1   
    37    20    21 ar  
    38    20    27 ar  
    39    21    22 ar  
    40    21    43 1   
    41    22    23 1   
    42    22    24 ar  
    43    23    44 1   
    44    23    45 1   
    45    23    46 1   
    46    24    25 ar  
    47    24    47 1   
    48    25    26 1   
    49    25    27 ar  
    50    26    48 1   
    51    26    49 1   
    52    26    50 1   
    53    27    51 1   
@<TRIPOS>SUBSTRUCTURE
     1 685         1 TEMP              0 ****  ****    0 ROOT
