@<TRIPOS>MOLECULE
685
   51    53     1     0     0
SMALL
No Charge or Current Charge


@<TRIPOS>ATOM
      1 C1          -6.3320    -1.8410    -1.8740 c3         1 685      -0.109100
      2 C2          -5.9090    -1.8280    -0.3890 c3         1 685       0.115700
      3 C4          -5.5590    -3.2430     0.1500 c3         1 685       0.146600
      4 O5          -4.3160    -3.7180    -0.4020 oh         1 685      -0.668000
      5 N6          -4.7910    -0.9030    -0.1830 ns         1 685      -0.501900
      6 C7          -4.9030     0.4500     0.0120 c          1 685       0.646700
      7 O8          -5.9870     1.0100     0.0480 o          1 685      -0.593100
      8 C9          -3.6020     1.1230     0.1700 cc         1 685      -0.340600
      9 S10         -2.0720     0.2870     0.1130 ss         1 685       0.089600
     10 C11         -1.2930     1.8290     0.3750 cc         1 685       0.357400
     11 N12         -2.1090     2.8740     0.4950 nd         1 685      -0.642000
     12 C13         -3.4320     2.4750     0.3770 cd         1 685       0.361300
     13 C14         -4.4970     3.5330     0.4870 c3         1 685      -0.124400
     14 C15          0.1780     1.9320     0.4550 ca         1 685       0.124000
     15 C16          0.8220     3.1720     0.6670 ca         1 685      -0.226000
     16 C17          2.2240     3.1890     0.7360 ca         1 685       0.144900
     17 N18          2.9460     2.0620     0.6030 nb         1 685      -0.224000
     18 C19          2.2540     0.9270     0.3910 ca         1 685       0.396900
     19 N20          2.9460    -0.2710     0.2800 nu         1 685      -0.926900
     20 C21          4.2970    -0.6210     0.1790 ca         1 685       0.321000
     21 C22          5.2600     0.2450    -0.3740 ca         1 685      -0.156000
     22 C23          6.6070    -0.1490    -0.4700 ca         1 685      -0.043800
     23 C24          7.6410     0.7970    -1.0620 c3         1 685      -0.048300
     24 C25          6.9900    -1.4220    -0.0130 ca         1 685      -0.139000
     25 C26          6.0360    -2.3040     0.5240 ca         1 685      -0.043800
     26 C27          6.4530    -3.6830     1.0120 c3         1 685      -0.048300
     27 C28          4.6920    -1.8970     0.6130 ca         1 685      -0.156000
     28 N29          0.9180     0.8060     0.3230 nb         1 685      -0.266000
     29 H1          -5.5070    -2.1790    -2.5140 hc         1 685       0.046700
     30 H1A         -7.1840    -2.5140    -2.0260 hc         1 685       0.046700
     31 H1B         -6.6300    -0.8370    -2.2000 hc         1 685       0.046700
     32 H2          -6.7650    -1.4660     0.1960 h1         1 685       0.076700
     33 H4          -5.4840    -3.1910     1.2440 h1         1 685       0.031200
     34 H4A         -6.3770    -3.9350    -0.0910 h1         1 685       0.031200
     35 HO5         -4.1710    -4.6230    -0.0460 ho         1 685       0.447000
     36 HN6         -3.8560    -1.2900    -0.1990 hn         1 685       0.326500
     37 H14         -5.1720     3.3220     1.3240 hc         1 685       0.060033
     38 H14A        -4.0640     4.5260     0.6530 hc         1 685       0.060033
     39 H14B        -5.0940     3.5820    -0.4310 hc         1 685       0.060033
     40 H16          0.2560     4.0940     0.7770 ha         1 685       0.159000
     41 H17          2.7750     4.1130     0.9020 h4         1 685       0.027100
     42 HN20         2.3250    -1.0750     0.3610 hn         1 685       0.508000
     43 H22          4.9670     1.2200    -0.7480 ha         1 685       0.128500
     44 H24          8.0540     1.4560    -0.2900 hc         1 685       0.042700
     45 H24A         8.4740     0.2470    -1.5150 hc         1 685       0.042700
     46 H24B         7.2020     1.4300    -1.8430 hc         1 685       0.042700
     47 H25          8.0320    -1.7290    -0.0800 ha         1 685       0.112000
     48 H27          6.7140    -3.6570     2.0770 hc         1 685       0.042700
     49 H27A         5.6470    -4.4140     0.8820 hc         1 685       0.042700
     50 H27B         7.3260    -4.0550     0.4620 hc         1 685       0.042700
     51 H28          3.9530    -2.5740     1.0320 ha         1 685       0.128500
@<TRIPOS>BOND
     1     1     2 1   
     2     1    29 1   
     3     1    30 1   
     4     1    31 1   
     5     2     3 1   
     6     2     5 1   
     7     2    32 1   
     8     3     4 1   
     9     3    33 1   
    10     3    34 1   
    11     4    35 1   
    12     5     6 1   
    13     5    36 1   
    14     6     7 2   
    15     6     8 1   
    16     8     9 1   
    17     8    12 2   
    18     9    10 1   
    19    10    11 2   
    20    10    14 1   
    21    11    12 1   
    22    12    13 1   
    23    13    37 1   
    24    13    38 1   
    25    13    39 1   
    26    14    15 ar  
    27    14    28 ar  
    28    15    16 ar  
    29    15    40 1   
    30    16    17 ar  
    31    16    41 1   
    32    17    18 ar  
    33    18    19 1   
    34    18    28 ar  
    35    19    20 1   
    36    19    42 1   
    37    20    21 ar  
    38    20    27 ar  
    39    21    22 ar  
    40    21    43 1   
    41    22    23 1   
    42    22    24 ar  
    43    23    44 1   
    44    23    45 1   
    45    23    46 1   
    46    24    25 ar  
    47    24    47 1   
    48    25    26 1   
    49    25    27 ar  
    50    26    48 1   
    51    26    49 1   
    52    26    50 1   
    53    27    51 1   
@<TRIPOS>SUBSTRUCTURE
     1 685         1 TEMP              0 ****  ****    0 ROOT
