@<TRIPOS>MOLECULE
687
   75    78     1     0     0
SMALL
abcg2


@<TRIPOS>ATOM
      1 O76          2.9600     1.1560    -4.8660 o          1 687      -0.636100
      2 C1          -0.8170    -0.1890    -1.8570 ca         1 687      -0.065000
      3 C2          -1.3220    -0.0380    -3.1370 ca         1 687      -0.201000
      4 C3          -0.4970     0.3830    -4.1820 ca         1 687       0.331100
      5 C4           0.8570     0.6340    -3.9040 ca         1 687      -0.266600
      6 C5           1.3470     0.4560    -2.6110 ca         1 687      -0.035000
      7 C6           0.5280     0.0490    -1.5700 ca         1 687      -0.231300
      8 P7          -0.6270    -0.6970    -6.6160 p5         1 687       1.237900
      9 O8          -1.4890    -1.8640    -6.1780 o          1 687      -0.883500
     10 O9          -1.0650     0.0320    -7.8700 o          1 687      -0.883500
     11 O10          0.8720    -0.9050    -6.4510 o          1 687      -0.883500
     12 C11          1.0790    -0.1250    -0.1830 c3         1 687       0.004900
     13 C12          1.9050    -1.4200    -0.0370 c3         1 687       0.051700
     14 C13          2.4140    -1.5850     1.3990 c          1 687       0.568100
     15 N14          3.2990    -0.6470     1.7880 ns         1 687      -0.517900
     16 N15          1.2410    -2.6080    -0.4990 ns         1 687      -0.470900
     17 C16          0.0390    -3.0580    -0.0920 c          1 687       0.633100
     18 C17         -0.3650    -4.3910    -0.6730 c3         1 687      -0.177100
     19 O18         -0.6860    -2.4540     0.6840 o          1 687      -0.631100
     20 O19          2.0450    -2.4790     2.1380 o          1 687      -0.587100
     21 C20          3.8940    -0.6650     3.1060 c3         1 687       0.044700
     22 C21          5.0110     0.3740     3.2270 c3         1 687      -0.083400
     23 C22          4.6520     1.8000     2.8290 c3         1 687      -0.073400
     24 C23          3.4680     2.3990     3.5740 c3         1 687      -0.095400
     25 C24          2.1470     1.6700     3.3610 c3         1 687       0.104000
     26 N25          1.9790     0.4800     4.1890 n          1 687      -0.397800
     27 C26          2.8500    -0.5510     4.2230 c          1 687       0.569000
     28 C27          0.8880     0.5350     5.1480 c3         1 687       0.143300
     29 C28         -0.4470     0.6350     4.4540 ca         1 687      -0.117300
     30 O29          2.8490    -1.3930     5.1110 o          1 687      -0.571000
     31 C53         -1.3810     1.5900     4.8390 ca         1 687      -0.101000
     32 C54         -2.6080     1.6890     4.1970 ca         1 687      -0.098000
     33 C55         -2.9320     0.8390     3.1410 cp         1 687      -0.036000
     34 C56         -1.9930    -0.1220     2.7620 ca         1 687      -0.098000
     35 C57         -0.7730    -0.2240     3.4070 ca         1 687      -0.101000
     36 C62         -4.2210     0.9550     2.4300 cp         1 687      -0.033000
     37 C63         -4.2920     0.7550     1.0500 ca         1 687      -0.097500
     38 C64         -5.5000     0.8590     0.3760 ca         1 687      -0.114500
     39 C65         -6.6620     1.1680     1.0700 ca         1 687      -0.117000
     40 C66         -6.6050     1.3720     2.4430 ca         1 687      -0.114500
     41 C67         -5.3960     1.2670     3.1150 ca         1 687      -0.097500
     42 C75          1.7490     1.1290    -4.9640 c          1 687       0.665500
     43 H1          -1.4790    -0.5120    -1.0630 ha         1 687       0.079000
     44 H2          -2.3670    -0.2390    -3.3370 ha         1 687       0.118000
     45 H5           2.3940     0.6650    -2.4190 ha         1 687       0.082000
     46 H111         0.2770    -0.1040     0.5530 hc         1 687       0.035200
     47 H112         1.7390     0.7150     0.0450 hc         1 687       0.035200
     48 H12          2.7810    -1.3140    -0.6820 h1         1 687       0.062700
     49 H14          3.6730    -0.0160     1.0980 hn         1 687       0.322500
     50 H15          1.7720    -3.1970    -1.1170 hn         1 687       0.319500
     51 H171        -1.3960    -4.3410    -1.0200 hc         1 687       0.057033
     52 H172         0.2640    -4.7200    -1.4980 hc         1 687       0.057033
     53 H173        -0.3200    -5.1490     0.1100 hc         1 687       0.057033
     54 H20          4.3490    -1.6450     3.2750 h1         1 687       0.076700
     55 H211         5.8490     0.0330     2.6160 hc         1 687       0.047200
     56 H212         5.3640     0.3550     4.2610 hc         1 687       0.047200
     57 H221         4.4600     1.8590     1.7520 hc         1 687       0.040700
     58 H222         5.5320     2.4250     2.9950 hc         1 687       0.040700
     59 H231         3.3350     3.4290     3.2340 hc         1 687       0.042200
     60 H232         3.6770     2.4540     4.6460 hc         1 687       0.042200
     61 H241         1.9970     1.4420     2.3040 h1         1 687       0.061700
     62 H242         1.3350     2.3440     3.6300 h1         1 687       0.061700
     63 H271         1.0220     1.3930     5.8150 h1         1 687       0.054700
     64 H272         0.9270    -0.3570     5.7690 h1         1 687       0.054700
     65 H53         -1.1460     2.2800     5.6410 ha         1 687       0.123000
     66 H54         -3.3020     2.4610     4.5070 ha         1 687       0.126500
     67 H56         -2.2140    -0.8150     1.9610 ha         1 687       0.126500
     68 H57         -0.0720    -0.9820     3.0780 ha         1 687       0.123000
     69 H63         -3.3900     0.5360     0.4910 ha         1 687       0.121000
     70 H64         -5.5310     0.7080    -0.6950 ha         1 687       0.112500
     71 H65         -7.6050     1.2490     0.5450 ha         1 687       0.104000
     72 H66         -7.5060     1.6080     2.9940 ha         1 687       0.112500
     73 H67         -5.3720     1.4080     4.1890 ha         1 687       0.121000
     74 H75          1.2510     1.5710    -5.8360 h4         1 687       0.020200
     75 O30         -0.9880     0.5450    -5.4070 os         1 687      -0.424500
@<TRIPOS>BOND
     1     1    42 2   
     2     2     3 ar  
     3     2     7 ar  
     4     2    43 1   
     5     3     4 ar  
     6     3    44 1   
     7     4     5 ar  
     8     4    75 1   
     9     5     6 ar  
    10     5    42 1   
    11     6     7 ar  
    12     6    45 1   
    13     7    12 1   
    14     8     9 1   
    15     8    10 1   
    16     8    11 1   
    17     8    75 1   
    18    12    13 1   
    19    12    46 1   
    20    12    47 1   
    21    13    14 1   
    22    13    16 1   
    23    13    48 1   
    24    14    15 1   
    25    14    20 2   
    26    15    21 1   
    27    15    49 1   
    28    16    17 1   
    29    16    50 1   
    30    17    18 1   
    31    17    19 2   
    32    18    51 1   
    33    18    52 1   
    34    18    53 1   
    35    21    22 1   
    36    21    27 1   
    37    21    54 1   
    38    22    23 1   
    39    22    55 1   
    40    22    56 1   
    41    23    24 1   
    42    23    57 1   
    43    23    58 1   
    44    24    25 1   
    45    24    59 1   
    46    24    60 1   
    47    25    26 1   
    48    25    61 1   
    49    25    62 1   
    50    26    27 1   
    51    26    28 1   
    52    27    30 2   
    53    28    29 1   
    54    28    63 1   
    55    28    64 1   
    56    29    31 ar  
    57    29    35 ar  
    58    31    32 ar  
    59    31    65 1   
    60    32    33 ar  
    61    32    66 1   
    62    33    34 ar  
    63    33    36 1   
    64    34    35 ar  
    65    34    67 1   
    66    35    68 1   
    67    36    37 ar  
    68    36    41 ar  
    69    37    38 ar  
    70    37    69 1   
    71    38    39 ar  
    72    38    70 1   
    73    39    40 ar  
    74    39    71 1   
    75    40    41 ar  
    76    40    72 1   
    77    41    73 1   
    78    42    74 1   
@<TRIPOS>SUBSTRUCTURE
     1 687         1 TEMP              0 ****  ****    0 ROOT
