@<TRIPOS>MOLECULE
687
   75    78     1     0     0
SMALL
No Charge or Current Charge


@<TRIPOS>ATOM
      1 O76          2.9590     0.4920    -5.0120 o          1 687      -0.636100
      2 C1          -0.7220     0.1750    -1.5070 ca         1 687      -0.065000
      3 C2          -1.3190     0.3760    -2.7610 ca         1 687      -0.201000
      4 C3          -0.5260     0.5000    -3.9230 ca         1 687       0.331100
      5 C4           0.8760     0.4200    -3.8120 ca         1 687      -0.266600
      6 C5           1.4700     0.2170    -2.5480 ca         1 687      -0.035000
      7 C6           0.6750     0.0900    -1.3960 ca         1 687      -0.231300
      8 P7          -2.6200     0.8370    -5.5860 p5         1 687       1.237900
      9 O8          -3.2330     2.0050    -4.8930 o          1 687      -0.883500
     10 O9          -2.7010     1.0470    -7.0580 o          1 687      -0.883500
     11 O10         -3.3590    -0.4060    -5.2300 o          1 687      -0.883500
     12 C11          1.3280    -0.1360    -0.0320 c3         1 687       0.004900
     13 C12          2.1450    -1.4590     0.0550 c3         1 687       0.051700
     14 C13          2.6880    -1.7420     1.4910 c          1 687       0.568100
     15 N14          3.3720    -0.6930     2.0740 ns         1 687      -0.517900
     16 N15          1.4240    -2.6290    -0.5100 ns         1 687      -0.470900
     17 C16          0.1800    -3.0780    -0.1200 c          1 687       0.633100
     18 C17         -0.3500    -4.2500    -0.9360 c3         1 687      -0.177100
     19 O18         -0.4550    -2.5910     0.8040 o          1 687      -0.631100
     20 O19          2.5340    -2.8050     2.0800 o          1 687      -0.587100
     21 C20          3.8480    -0.6750     3.4760 c3         1 687       0.044700
     22 C21          5.0440     0.2920     3.6830 c3         1 687      -0.083400
     23 C22          4.8840     1.7270     3.1210 c3         1 687      -0.073400
     24 C23          3.7240     2.5460     3.7270 c3         1 687      -0.095400
     25 C24          2.3400     1.9150     3.4980 c3         1 687       0.104000
     26 N25          2.0150     0.8500     4.4720 n          1 687      -0.397800
     27 C26          2.6650    -0.4120     4.4610 c          1 687       0.569000
     28 C27          0.7850     1.0510     5.2700 c3         1 687       0.143300
     29 C28         -0.4690     0.8860     4.4180 ca         1 687      -0.117300
     30 O29          2.3090    -1.3000     5.2280 o          1 687      -0.571000
     31 C53         -1.2290     2.0070     4.0350 ca         1 687      -0.101000
     32 C54         -2.3510     1.8530     3.2020 ca         1 687      -0.098000
     33 C55         -2.7440     0.5760     2.7280 cp         1 687      -0.036000
     34 C56         -1.9720    -0.5410     3.1320 ca         1 687      -0.098000
     35 C57         -0.8510    -0.3890     3.9640 ca         1 687      -0.101000
     36 C62         -3.9270     0.4110     1.8230 cp         1 687      -0.033000
     37 C63         -3.9410    -0.5810     0.8080 ca         1 687      -0.097500
     38 C64         -5.0470    -0.7330    -0.0450 ca         1 687      -0.114500
     39 C65         -6.1670     0.1020     0.0990 ca         1 687      -0.117000
     40 C66         -6.1780     1.0900     1.0970 ca         1 687      -0.114500
     41 C67         -5.0700     1.2430     1.9490 ca         1 687      -0.097500
     42 C75          1.7300     0.5530    -5.0410 c          1 687       0.665500
     43 H1          -1.3500     0.0830    -0.6240 ha         1 687       0.079000
     44 H2          -2.4010     0.4350    -2.8140 ha         1 687       0.118000
     45 H5           2.5530     0.1580    -2.4600 ha         1 687       0.082000
     46 H111         0.5690    -0.1290     0.7610 hc         1 687       0.035200
     47 H112         1.9900     0.7110     0.1860 hc         1 687       0.035200
     48 H12          3.0380    -1.3190    -0.5670 h1         1 687       0.062700
     49 H14          3.5060     0.1360     1.5090 hn         1 687       0.322500
     50 H15          1.8500    -3.1220    -1.2850 hn         1 687       0.319500
     51 H171        -1.3350    -4.5890    -0.5980 hc         1 687       0.057033
     52 H172        -0.3620    -3.9690    -1.9960 hc         1 687       0.057033
     53 H173         0.3870    -5.0610    -0.9180 hc         1 687       0.057033
     54 H20          4.2120    -1.6830     3.7170 h1         1 687       0.076700
     55 H211         5.9250    -0.1560     3.2080 hc         1 687       0.047200
     56 H212         5.2730     0.3480     4.7550 hc         1 687       0.047200
     57 H221         4.7690     1.6860     2.0310 hc         1 687       0.040700
     58 H222         5.8190     2.2720     3.3030 hc         1 687       0.040700
     59 H231         3.7320     3.5400     3.2620 hc         1 687       0.042200
     60 H232         3.8890     2.7010     4.8000 hc         1 687       0.042200
     61 H241         2.2400     1.5460     2.4710 h1         1 687       0.061700
     62 H242         1.5970     2.7170     3.6040 h1         1 687       0.061700
     63 H271         0.8080     2.0600     5.7020 h1         1 687       0.054700
     64 H272         0.7490     0.3500     6.1130 h1         1 687       0.054700
     65 H53         -0.9430     3.0020     4.3680 ha         1 687       0.123000
     66 H54         -2.9070     2.7380     2.9030 ha         1 687       0.126500
     67 H56         -2.2430    -1.5400     2.7990 ha         1 687       0.126500
     68 H57         -0.2720    -1.2660     4.2450 ha         1 687       0.123000
     69 H63         -3.0800    -1.2300     0.6710 ha         1 687       0.121000
     70 H64         -5.0350    -1.4960    -0.8200 ha         1 687       0.112500
     71 H65         -7.0230    -0.0160    -0.5610 ha         1 687       0.104000
     72 H66         -7.0450     1.7360     1.2120 ha         1 687       0.112500
     73 H67         -5.1050     2.0050     2.7220 ha         1 687       0.121000
     74 H75          1.2040     0.7140    -6.0090 h4         1 687       0.020200
     75 O30         -1.0690     0.6980    -5.1680 os         1 687      -0.424500
@<TRIPOS>BOND
     1     1    42 2   
     2     2     3 ar  
     3     2     7 ar  
     4     2    43 1   
     5     3     4 ar  
     6     3    44 1   
     7     4     5 ar  
     8     4    75 1   
     9     5     6 ar  
    10     5    42 1   
    11     6     7 ar  
    12     6    45 1   
    13     7    12 1   
    14     8     9 1   
    15     8    10 1   
    16     8    11 1   
    17     8    75 1   
    18    12    13 1   
    19    12    46 1   
    20    12    47 1   
    21    13    14 1   
    22    13    16 1   
    23    13    48 1   
    24    14    15 1   
    25    14    20 2   
    26    15    21 1   
    27    15    49 1   
    28    16    17 1   
    29    16    50 1   
    30    17    18 1   
    31    17    19 2   
    32    18    51 1   
    33    18    52 1   
    34    18    53 1   
    35    21    22 1   
    36    21    27 1   
    37    21    54 1   
    38    22    23 1   
    39    22    55 1   
    40    22    56 1   
    41    23    24 1   
    42    23    57 1   
    43    23    58 1   
    44    24    25 1   
    45    24    59 1   
    46    24    60 1   
    47    25    26 1   
    48    25    61 1   
    49    25    62 1   
    50    26    27 1   
    51    26    28 1   
    52    27    30 2   
    53    28    29 1   
    54    28    63 1   
    55    28    64 1   
    56    29    31 ar  
    57    29    35 ar  
    58    31    32 ar  
    59    31    65 1   
    60    32    33 ar  
    61    32    66 1   
    62    33    34 ar  
    63    33    36 1   
    64    34    35 ar  
    65    34    67 1   
    66    35    68 1   
    67    36    37 ar  
    68    36    41 ar  
    69    37    38 ar  
    70    37    69 1   
    71    38    39 ar  
    72    38    70 1   
    73    39    40 ar  
    74    39    71 1   
    75    40    41 ar  
    76    40    72 1   
    77    41    73 1   
    78    42    74 1   
@<TRIPOS>SUBSTRUCTURE
     1 687         1 TEMP              0 ****  ****    0 ROOT
