@<TRIPOS>MOLECULE
688
   48    51     1     0     0
SMALL
No Charge or Current Charge


@<TRIPOS>ATOM
      1 C1          -2.9020    -0.2400    -2.3240 ca         1 688      -0.158000
      2 C2          -4.0780    -0.4620    -1.5740 ca         1 688      -0.065600
      3 C3          -3.9190    -1.1230    -0.3370 ca         1 688      -0.159000
      4 C4          -2.6450    -1.5290     0.0820 ca         1 688       0.571300
      5 N5          -1.5370    -1.3360    -0.6640 nb         1 688      -0.877000
      6 C6          -1.6670    -0.6760    -1.8290 ca         1 688       0.567300
      7 O1          -2.5300    -2.1620     1.2970 os         1 688      -0.372400
      8 O2          -0.5400    -0.4430    -2.5800 os         1 688      -0.373400
      9 C7          -5.4400    -0.0050    -2.0690 c          1 688       0.715600
     10 O3          -5.5070     0.5640    -3.1490 o          1 688      -0.699500
     11 O4          -6.4190    -0.2260    -1.3670 o          1 688      -0.699500
     12 C11          0.6180     0.1120    -2.0590 ca         1 688       0.055100
     13 C12          1.0220     1.3720    -2.5340 ca         1 688      -0.065000
     14 C13          2.2280     1.9680    -2.0880 ca         1 688      -0.224900
     15 C14          3.0120     1.2750    -1.1360 ca         1 688      -0.066000
     16 C15          2.6210     0.0090    -0.6700 ca         1 688      -0.160000
     17 C16          1.4330    -0.5770    -1.1280 ca         1 688       0.168100
     18 C17          2.6260     3.3280    -2.5570 ce         1 688       0.671800
     19 N11          1.8080     4.1770    -3.0180 n2         1 688      -0.861100
     20 N12          3.9380     3.5910    -2.6690 nv         1 688      -1.042200
     21 O11          1.0610    -1.7940    -0.6450 oh         1 688      -0.562100
     22 C21         -1.3640    -2.1710     2.0340 ca         1 688       0.132100
     23 C22         -0.9690    -3.3620     2.6610 ca         1 688      -0.116000
     24 C23          0.2220    -3.4020     3.4030 ca         1 688      -0.103000
     25 C24          1.0230    -2.2520     3.5160 ca         1 688      -0.130000
     26 C25          0.6350    -1.0400     2.9000 ca         1 688      -0.110500
     27 C26         -0.5800    -1.0090     2.1790 ca         1 688      -0.080000
     28 C27          1.4680     0.1700     2.9960 cc         1 688       0.462000
     29 N21          2.7210     0.2060     3.5580 na         1 688      -0.294500
     30 N22          1.1350     1.3710     2.5450 nd         1 688      -0.663000
     31 C28          2.2070     2.1960     2.8170 cd         1 688       0.245900
     32 C29          3.2030     1.4950     3.4460 cc         1 688      -0.246000
     33 H1          -2.9350     0.2710    -3.2810 ha         1 688       0.160000
     34 H3          -4.7710    -1.3220     0.3060 ha         1 688       0.160000
     35 H12          0.3960     1.8740    -3.2690 ha         1 688       0.132000
     36 H14          3.9260     1.7180    -0.7430 ha         1 688       0.111000
     37 H15          3.2330    -0.5120     0.0610 ha         1 688       0.115000
     38 HN11         0.8600     3.8450    -2.7970 hn         1 688       0.400400
     39 H121         4.1430     4.3530    -3.3020 hn         1 688       0.462000
     40 H122         4.5390     2.7790    -2.7400 hn         1 688       0.462000
     41 HO11         0.0560    -1.7710    -0.6600 ho         1 688       0.512000
     42 H22         -1.5820    -4.2550     2.5620 ha         1 688       0.128000
     43 H23          0.5300    -4.3280     3.8840 ha         1 688       0.107000
     44 H24          1.9450    -2.3140     4.0890 ha         1 688       0.094000
     45 H26         -0.9040    -0.0860     1.7040 ha         1 688       0.160000
     46 HN21         3.1950    -0.5880     3.9680 hn         1 688       0.345000
     47 H28          2.2020     3.2450     2.5460 h4         1 688       0.043100
     48 H29          4.1760     1.8100     3.8030 h4         1 688       0.150000
@<TRIPOS>BOND
     1     1     2 ar  
     2     1     6 ar  
     3     1    33 1   
     4     2     3 ar  
     5     2     9 1   
     6     3     4 ar  
     7     3    34 1   
     8     4     5 ar  
     9     4     7 1   
    10     5     6 ar  
    11     6     8 1   
    12     7    22 1   
    13     8    12 1   
    14     9    10 1   
    15     9    11 1   
    16    12    13 ar  
    17    12    17 ar  
    18    13    14 ar  
    19    13    35 1   
    20    14    15 ar  
    21    14    18 1   
    22    15    16 ar  
    23    15    36 1   
    24    16    17 ar  
    25    16    37 1   
    26    17    21 1   
    27    18    19 2   
    28    18    20 1   
    29    19    38 1   
    30    20    39 1   
    31    20    40 1   
    32    21    41 1   
    33    22    23 ar  
    34    22    27 ar  
    35    23    24 ar  
    36    23    42 1   
    37    24    25 ar  
    38    24    43 1   
    39    25    26 ar  
    40    25    44 1   
    41    26    27 ar  
    42    26    28 1   
    43    27    45 1   
    44    28    29 1   
    45    28    30 2   
    46    29    32 1   
    47    29    46 1   
    48    30    31 1   
    49    31    32 2   
    50    31    47 1   
    51    32    48 1   
@<TRIPOS>SUBSTRUCTURE
     1 688         1 TEMP              0 ****  ****    0 ROOT
