@<TRIPOS>MOLECULE
688
   48    51     1     0     0
SMALL
bcc


@<TRIPOS>ATOM
      1 C1          -3.0260    -0.3710    -2.4090 ca         1 688      -0.241300
      2 C2          -4.1570    -0.6440    -1.6450 ca         1 688      -0.065600
      3 C3          -4.0090    -1.1160    -0.3450 ca         1 688      -0.242300
      4 C4          -2.7200    -1.3270     0.1160 ca         1 688       0.636600
      5 N5          -1.6490    -1.1210    -0.6210 nb         1 688      -0.877000
      6 C6          -1.7940    -0.6200    -1.8310 ca         1 688       0.632600
      7 O1          -2.5460    -1.7800     1.3760 os         1 688      -0.372400
      8 O2          -0.6680    -0.3540    -2.5270 os         1 688      -0.373400
      9 C7          -5.5550    -0.3930    -2.2200 c          1 688       0.926200
     10 O3          -5.5960     0.0520    -3.3790 o          1 688      -0.804800
     11 O4          -6.5100    -0.6600    -1.4710 o          1 688      -0.804800
     12 C11          0.4960    -0.0490    -1.8440 ca         1 688       0.055100
     13 C12          0.9580     1.2510    -1.9340 ca         1 688      -0.083000
     14 C13          2.1840     1.6120    -1.3840 ca         1 688      -0.224900
     15 C14          2.9440     0.6360    -0.7480 ca         1 688      -0.084000
     16 C15          2.4640    -0.6540    -0.6210 ca         1 688      -0.178000
     17 C16          1.2330    -1.0190    -1.1540 ca         1 688       0.168100
     18 C17          2.6340     3.0270    -1.4540 ce         1 688       0.671800
     19 N11          1.8570     4.0400    -1.3680 n2         1 688      -0.861100
     20 N12          3.9790     3.1990    -1.5790 nv         1 688      -0.931800
     21 O11          0.8060    -2.2860    -1.0100 oh         1 688      -0.523100
     22 C21         -1.2810    -1.7740     1.9200 ca         1 688       0.132100
     23 C22         -0.8090    -2.9580     2.4640 ca         1 688      -0.134000
     24 C23          0.4560    -2.9710     3.0390 ca         1 688      -0.121000
     25 C24          1.2450    -1.8320     3.0430 ca         1 688      -0.148000
     26 C25          0.7640    -0.6460     2.4850 ca         1 688      -0.110500
     27 C26         -0.5170    -0.6200     1.9440 ca         1 688      -0.098000
     28 C27          1.5680     0.5700     2.4170 cc         1 688       0.462000
     29 N21          2.8930     0.6230     2.6880 na         1 688      -0.294900
     30 N22          1.1240     1.7520     2.0540 nd         1 688      -0.663000
     31 C28          2.1990     2.5850     2.0830 cd         1 688       0.311200
     32 C29          3.3150     1.9000     2.4750 cc         1 688      -0.278600
     33 H1          -3.1060     0.0330    -3.4080 ha         1 688       0.178000
     34 H3          -4.8680    -1.3050     0.2830 ha         1 688       0.178000
     35 H12          0.3610     1.9780    -2.4730 ha         1 688       0.150000
     36 H14          3.8960     0.8930    -0.3020 ha         1 688       0.129000
     37 H15          3.0340    -1.3980    -0.0800 ha         1 688       0.133000
     38 HN11         0.9100     3.7420    -1.1630 hn         1 688       0.400400
     39 H121         4.2960     4.1390    -1.7520 hn         1 688       0.406800
     40 H122         4.5160     2.4850    -2.0420 hn         1 688       0.406800
     41 HO11        -0.1360    -2.2400    -0.7570 ho         1 688       0.473000
     42 H22         -1.4170    -3.8530     2.4370 ha         1 688       0.146000
     43 H23          0.8330    -3.8850     3.4760 ha         1 688       0.125000
     44 H24          2.2290    -1.8800     3.4910 ha         1 688       0.112000
     45 H26         -0.8850     0.3010     1.5130 ha         1 688       0.178000
     46 HN21         3.4880    -0.1430     2.9580 hn         1 688       0.294700
     47 H28          2.1210     3.6260     1.8120 h4         1 688       0.043100
     48 H29          4.3400     2.1990     2.6130 h4         1 688       0.168000
@<TRIPOS>BOND
     1     1     2 ar  
     2     1     6 ar  
     3     1    33 1   
     4     2     3 ar  
     5     2     9 1   
     6     3     4 ar  
     7     3    34 1   
     8     4     5 ar  
     9     4     7 1   
    10     5     6 ar  
    11     6     8 1   
    12     7    22 1   
    13     8    12 1   
    14     9    10 1   
    15     9    11 1   
    16    12    13 ar  
    17    12    17 ar  
    18    13    14 ar  
    19    13    35 1   
    20    14    15 ar  
    21    14    18 1   
    22    15    16 ar  
    23    15    36 1   
    24    16    17 ar  
    25    16    37 1   
    26    17    21 1   
    27    18    19 2   
    28    18    20 1   
    29    19    38 1   
    30    20    39 1   
    31    20    40 1   
    32    21    41 1   
    33    22    23 ar  
    34    22    27 ar  
    35    23    24 ar  
    36    23    42 1   
    37    24    25 ar  
    38    24    43 1   
    39    25    26 ar  
    40    25    44 1   
    41    26    27 ar  
    42    26    28 1   
    43    27    45 1   
    44    28    29 1   
    45    28    30 2   
    46    29    32 1   
    47    29    46 1   
    48    30    31 1   
    49    31    32 2   
    50    31    47 1   
    51    32    48 1   
@<TRIPOS>SUBSTRUCTURE
     1 688         1 TEMP              0 ****  ****    0 ROOT
