@<TRIPOS>MOLECULE
68A
   22    23     1     0     0
SMALL
bcc


@<TRIPOS>ATOM
      1 C5          -0.5550     1.0720    -0.0500 cc         1 68A       0.118300
      2 C7          -2.7650     1.3380    -0.0740 cd         1 68A       0.450800
      3 C10         -1.9250    -0.9280    -0.0290 c          1 68A       0.733100
      4 C2           0.6640    -0.9420     0.0010 cd         1 68A      -0.054300
      5 C3           1.6650    -0.0110    -0.0040 cc         1 68A      -0.089700
      6 S4           1.0680     1.6220    -0.0410 ss         1 68A       0.024200
      7 N6          -1.6120     1.9150    -0.0750 nc         1 68A      -0.581100
      8 N8          -2.9730     0.0010    -0.0530 n          1 68A      -0.403300
      9 C9          -4.3320    -0.5220    -0.0510 c3         1 68A       0.087300
     10 O11         -2.1710    -2.1220    -0.0120 o          1 68A      -0.642500
     11 C12         -0.6240    -0.3100    -0.0270 cd         1 68A      -0.228600
     12 O14          3.7450     1.0000     0.0020 o          1 68A      -0.810800
     13 O15          3.6960    -1.2330     0.0460 o          1 68A      -0.810800
     14 H1          -3.6580     1.9510    -0.0930 h5         1 68A       0.023800
     15 H2           0.4310    -2.8900    -0.8610 hc         1 68A       0.046033
     16 H3           1.9020    -2.6790     0.0960 hc         1 68A       0.046033
     17 H4           0.3300    -2.8610     0.8870 hc         1 68A       0.046033
     18 H5          -4.5170    -1.1010     0.8510 h1         1 68A       0.040700
     19 H6          -5.0310     0.3080    -0.0860 h1         1 68A       0.040700
     20 H7          -4.4970    -1.1580    -0.9180 h1         1 68A       0.040700
     21 C13          3.1710    -0.1070     0.0170 c          1 68A       0.945200
     22 C1           0.8500    -2.4260     0.0330 c3         1 68A      -0.023800
@<TRIPOS>BOND
     1     1     6 1   
     2     1     7 1   
     3     1    11 2   
     4     2     7 2   
     5     2     8 1   
     6     2    14 1   
     7     3     8 1   
     8     3    10 2   
     9     3    11 1   
    10     4     5 2   
    11     4    11 1   
    12     4    22 1   
    13     5     6 1   
    14     5    21 1   
    15     8     9 1   
    16     9    18 1   
    17     9    19 1   
    18     9    20 1   
    19    12    21 1   
    20    13    21 1   
    21    15    22 1   
    22    16    22 1   
    23    17    22 1   
@<TRIPOS>SUBSTRUCTURE
     1 68A         1 TEMP              0 ****  ****    0 ROOT
