@<TRIPOS>MOLECULE
68A
   22    23     1     0     0
SMALL
No Charge or Current Charge


@<TRIPOS>ATOM
      1 C5          -0.5330     1.1290    -0.0020 cc         1 68A      -0.026600
      2 C7          -2.8290     1.3540    -0.0400 cd         1 68A       0.450800
      3 C10         -1.9480    -0.9030    -0.0260 c          1 68A       0.590600
      4 C2           0.6900    -0.8800     0.0460 cd         1 68A      -0.054300
      5 C3           1.7210     0.0560    -0.0100 cc         1 68A      -0.234600
      6 S4           1.1260     1.7050     0.0310 ss         1 68A       0.314000
      7 N6          -1.6380     1.9510    -0.0250 nc         1 68A      -0.581100
      8 N8          -3.0270    -0.0140    -0.0430 n          1 68A      -0.336300
      9 C9          -4.4010    -0.5580    -0.0740 c3         1 68A       0.087300
     10 O11         -2.1220    -2.1150    -0.0540 o          1 68A      -0.567000
     11 C12         -0.6120    -0.2440     0.0130 cd         1 68A      -0.228600
     12 O14          3.9180     0.8020    -0.1280 o          1 68A      -0.705500
     13 O15          3.6270    -1.3080    -0.2410 o          1 68A      -0.705500
     14 H1          -3.7200     1.9700    -0.0560 h5         1 68A       0.023800
     15 H2           0.9170    -2.8250    -0.8920 hc         1 68A       0.046033
     16 H3           1.7930    -2.6660     0.6430 hc         1 68A       0.046033
     17 H4           0.0800    -2.8790     0.6710 hc         1 68A       0.046033
     18 H5          -4.5680    -1.1930     0.8060 h1         1 68A       0.040700
     19 H6          -5.1380     0.2550    -0.0680 h1         1 68A       0.040700
     20 H7          -4.5410    -1.1570    -0.9830 h1         1 68A       0.040700
     21 C13          3.1860    -0.1760    -0.1240 c          1 68A       0.734600
     22 C1           0.8790    -2.3850     0.1120 c3         1 68A      -0.023800
@<TRIPOS>BOND
     1     1     6 1   
     2     1     7 1   
     3     1    11 2   
     4     2     7 2   
     5     2     8 1   
     6     2    14 1   
     7     3     8 1   
     8     3    10 2   
     9     3    11 1   
    10     4     5 2   
    11     4    11 1   
    12     4    22 1   
    13     5     6 1   
    14     5    21 1   
    15     8     9 1   
    16     9    18 1   
    17     9    19 1   
    18     9    20 1   
    19    12    21 1   
    20    13    21 1   
    21    15    22 1   
    22    16    22 1   
    23    17    22 1   
@<TRIPOS>SUBSTRUCTURE
     1 68A         1 TEMP              0 ****  ****    0 ROOT
