@<TRIPOS>MOLECULE
68B
   24    25     1     0     0
SMALL
No Charge or Current Charge


@<TRIPOS>ATOM
      1 N3           0.4550    -0.2420     0.0250 ns         1 68B      -0.135000
      2 C4           1.8790    -0.1760     0.0400 ca         1 68B      -0.124000
      3 C5           2.6220     1.0270     0.0710 ca         1 68B       0.069900
      4 C7           4.5760    -0.1820     0.0650 ca         1 68B       0.087900
      5 C10         -1.9640     0.2550     0.0120 ca         1 68B      -0.158600
      6 C13         -4.6710    -0.5920    -0.0300 ca         1 68B      -0.083000
      7 C15         -3.0210     1.1970     0.0210 ca         1 68B      -0.069500
      8 O1          -0.2650     1.9440     0.0620 o          1 68B      -0.571100
      9 C2          -0.5260     0.7460     0.0360 c          1 68B       0.622700
     10 N6           3.9720     1.0250     0.0830 nb         1 68B      -0.151500
     11 N8           3.9660    -1.3850     0.0350 nb         1 68B      -0.151500
     12 C9           2.6180    -1.3760     0.0230 ca         1 68B       0.069900
     13 C11         -2.2930    -1.1250    -0.0190 ca         1 68B      -0.069500
     14 C12         -3.6360    -1.5390    -0.0400 ca         1 68B      -0.117500
     15 C14         -4.3610     0.7760     0.0000 ca         1 68B      -0.117500
     16 H1           0.0900    -1.1850     0.0030 hn         1 68B       0.158000
     17 H2           2.1560     2.0090     0.0860 h4         1 68B       0.038100
     18 H3           5.6640    -0.1850     0.0750 h5         1 68B       0.053100
     19 H4          -5.7090    -0.9170    -0.0470 ha         1 68B       0.119000
     20 H5          -2.8070     2.2640     0.0450 ha         1 68B       0.124500
     21 H6           2.1240    -2.3470    -0.0010 h4         1 68B       0.038100
     22 H7          -1.5220    -1.8920    -0.0270 ha         1 68B       0.124500
     23 H8          -3.8750    -2.6000    -0.0640 ha         1 68B       0.120500
     24 H9          -5.1620     1.5130     0.0080 ha         1 68B       0.120500
@<TRIPOS>BOND
     1     1     2 1   
     2     1     9 1   
     3     1    16 1   
     4     2     3 ar  
     5     2    12 ar  
     6     3    10 ar  
     7     3    17 1   
     8     4    10 ar  
     9     4    11 ar  
    10     4    18 1   
    11     5     7 ar  
    12     5     9 1   
    13     5    13 ar  
    14     6    14 ar  
    15     6    15 ar  
    16     6    19 1   
    17     7    15 ar  
    18     7    20 1   
    19     8     9 2   
    20    11    12 ar  
    21    12    21 1   
    22    13    14 ar  
    23    13    22 1   
    24    14    23 1   
    25    15    24 1   
@<TRIPOS>SUBSTRUCTURE
     1 68B         1 TEMP              0 ****  ****    0 ROOT
