@<TRIPOS>MOLECULE
68B
   24    25     1     0     0
SMALL
abcg2


@<TRIPOS>ATOM
      1 N3           0.4300    -0.3110    -0.0320 ns         1 68B      -0.135000
      2 C4           1.8120    -0.1740    -0.0000 ca         1 68B      -0.124000
      3 C5           2.5230     0.9420     0.4400 ca         1 68B       0.069900
      4 C7           4.4820    -0.1180     0.0020 ca         1 68B       0.087900
      5 C10         -1.9230     0.1910     0.0880 ca         1 68B      -0.158600
      6 C13         -4.6050    -0.5510    -0.0400 ca         1 68B      -0.083000
      7 C15         -2.8930     1.1200    -0.2840 ca         1 68B      -0.069500
      8 O1          -0.2280     1.8200     0.3810 o          1 68B      -0.571100
      9 C2          -0.5080     0.6550     0.1670 c          1 68B       0.622700
     10 N6           3.8510     0.9570     0.4350 nb         1 68B      -0.151500
     11 N8           3.9050    -1.2300    -0.4310 nb         1 68B      -0.151500
     12 C9           2.5860    -1.2530    -0.4300 ca         1 68B       0.069900
     13 C11         -2.3090    -1.1090     0.4120 ca         1 68B      -0.069500
     14 C12         -3.6460    -1.4750     0.3500 ca         1 68B      -0.117500
     15 C14         -4.2250     0.7480    -0.3580 ca         1 68B      -0.117500
     16 H1           0.1020    -1.2160    -0.3360 hn         1 68B       0.158000
     17 H2           2.0280     1.8300     0.8000 h4         1 68B       0.038100
     18 H3           5.5660    -0.0910     0.0010 h5         1 68B       0.053100
     19 H4          -5.6470    -0.8390    -0.0900 ha         1 68B       0.119000
     20 H5          -2.6040     2.1340    -0.5280 ha         1 68B       0.124500
     21 H6           2.1060    -2.1610    -0.7820 h4         1 68B       0.038100
     22 H7          -1.5850    -1.8430     0.7420 ha         1 68B       0.124500
     23 H8          -3.9370    -2.4830     0.6160 ha         1 68B       0.120500
     24 H9          -4.9700     1.4720    -0.6610 ha         1 68B       0.120500
@<TRIPOS>BOND
     1     1     2 1   
     2     1     9 1   
     3     1    16 1   
     4     2     3 ar  
     5     2    12 ar  
     6     3    10 ar  
     7     3    17 1   
     8     4    10 ar  
     9     4    11 ar  
    10     4    18 1   
    11     5     7 ar  
    12     5     9 1   
    13     5    13 ar  
    14     6    14 ar  
    15     6    15 ar  
    16     6    19 1   
    17     7    15 ar  
    18     7    20 1   
    19     8     9 2   
    20    11    12 ar  
    21    12    21 1   
    22    13    14 ar  
    23    13    22 1   
    24    14    23 1   
    25    15    24 1   
@<TRIPOS>SUBSTRUCTURE
     1 68B         1 TEMP              0 ****  ****    0 ROOT
