@<TRIPOS>MOLECULE
68C
   26    28     1     0     0
SMALL
abcg2


@<TRIPOS>ATOM
      1 C5          -2.5040     0.9820    -0.2470 cc         1 68C       0.084400
      2 C7          -4.6530     1.5270    -0.1800 cd         1 68C       0.515800
      3 C15          3.2460     0.1040     0.0150 cc         1 68C       0.545300
      4 C1          -1.4940    -2.6110     0.2760 c3         1 68C      -0.048800
      5 C2          -1.5190    -1.1410     0.0110 cd         1 68C       0.066700
      6 C3          -0.4260    -0.3420    -0.2010 cc         1 68C      -0.334600
      7 S4          -0.8390     1.3330    -0.4400 ss         1 68C       0.284000
      8 N6          -3.4420     1.9490    -0.3360 nc         1 68C      -0.604100
      9 N8          -4.9860     0.2430     0.0490 ns         1 68C      -0.417400
     10 C9          -4.0850    -0.8130     0.1480 c          1 68C       0.596600
     11 O10         -4.4740    -1.9480     0.3460 o          1 68C      -0.521000
     12 C11         -2.7190    -0.3670    -0.0170 cd         1 68C      -0.262600
     13 C12          0.9820    -0.7670    -0.2940 c          1 68C       0.654700
     14 O13          1.3200    -1.8520    -0.7060 o          1 68C      -0.499100
     15 N14          1.8810     0.1960     0.1240 ns         1 68C      -0.488400
     16 N16          3.8900    -0.6480    -0.8170 nd         1 68C      -0.338000
     17 N17          5.2280    -0.5130    -0.7040 nd         1 68C      -0.287000
     18 C18          5.5850     0.3350     0.1950 cc         1 68C       0.385300
     19 S19          4.2700     1.0640     1.0300 ss         1 68C      -0.321800
     20 H1          -5.4780     2.2240    -0.2330 h5         1 68C       0.053800
     21 H2          -1.8510    -3.1600    -0.5970 hc         1 68C       0.066700
     22 H3          -0.4970    -2.9680     0.5100 hc         1 68C       0.066700
     23 H4          -2.1550    -2.8600     1.1030 hc         1 68C       0.066700
     24 H5          -5.9690     0.0200     0.1510 hn         1 68C       0.336500
     25 H6           1.5260     0.9610     0.6790 hn         1 68C       0.334500
     26 H7           6.6130     0.5830     0.4150 h5         1 68C       0.064100
@<TRIPOS>BOND
     1     1     7 1   
     2     1     8 1   
     3     1    12 2   
     4     2     8 2   
     5     2     9 1   
     6     2    20 1   
     7     3    15 1   
     8     3    16 2   
     9     3    19 1   
    10     4     5 1   
    11     4    21 1   
    12     4    22 1   
    13     4    23 1   
    14     5     6 2   
    15     5    12 1   
    16     6     7 1   
    17     6    13 1   
    18     9    10 1   
    19     9    24 1   
    20    10    11 2   
    21    10    12 1   
    22    13    14 2   
    23    13    15 1   
    24    15    25 1   
    25    16    17 1   
    26    17    18 2   
    27    18    19 1   
    28    18    26 1   
@<TRIPOS>SUBSTRUCTURE
     1 68C         1 TEMP              0 ****  ****    0 ROOT
