@<TRIPOS>MOLECULE
68C
   26    28     1     0     0
SMALL
No Charge or Current Charge


@<TRIPOS>ATOM
      1 C5          -2.4780     1.0400     0.0730 cc         1 68C       0.084400
      2 C7          -4.7130     1.5630    -0.0100 cd         1 68C       0.515800
      3 C15          3.3120     0.0760    -0.0160 cc         1 68C       0.545300
      4 C1          -1.5630    -2.6400     0.1100 c3         1 68C      -0.048800
      5 C2          -1.5440    -1.1220     0.0900 cd         1 68C       0.066700
      6 C3          -0.3920    -0.3450     0.0850 cc         1 68C      -0.334600
      7 S4          -0.7590     1.3750     0.1580 ss         1 68C       0.284000
      8 N6          -3.4610     2.0100     0.0480 nc         1 68C      -0.604100
      9 N8          -5.0420     0.2420    -0.0520 ns         1 68C      -0.417400
     10 C9          -4.1490    -0.7770    -0.0350 c          1 68C       0.596600
     11 O10         -4.5230    -1.9360    -0.0980 o          1 68C      -0.521000
     12 C11         -2.7410    -0.3120     0.0480 cd         1 68C      -0.262600
     13 C12          1.0060    -0.8410    -0.0110 c          1 68C       0.654700
     14 O13          1.3100    -2.0140    -0.1420 o          1 68C      -0.499100
     15 N14          1.9410     0.1650     0.0490 ns         1 68C      -0.488400
     16 N16          3.9910    -1.0530    -0.1590 nd         1 68C      -0.338000
     17 N17          5.3580    -0.8410    -0.1940 nd         1 68C      -0.287000
     18 C18          5.6580     0.4430    -0.0760 cc         1 68C       0.385300
     19 S19          4.2900     1.5050     0.0880 ss         1 68C      -0.321800
     20 H1          -5.5720     2.2240    -0.0340 h5         1 68C       0.053800
     21 H2          -1.4760    -3.0500    -0.9020 hc         1 68C       0.066700
     22 H3          -0.7490    -3.0490     0.7170 hc         1 68C       0.066700
     23 H4          -2.4700    -3.0440     0.5650 hc         1 68C       0.066700
     24 H5          -6.0130    -0.0270    -0.1050 hn         1 68C       0.336500
     25 H6           1.5640     1.0910     0.1610 hn         1 68C       0.334500
     26 H7           6.6620     0.8480    -0.0770 h5         1 68C       0.064100
@<TRIPOS>BOND
     1     1     7 1   
     2     1     8 1   
     3     1    12 2   
     4     2     8 2   
     5     2     9 1   
     6     2    20 1   
     7     3    15 1   
     8     3    16 2   
     9     3    19 1   
    10     4     5 1   
    11     4    21 1   
    12     4    22 1   
    13     4    23 1   
    14     5     6 2   
    15     5    12 1   
    16     6     7 1   
    17     6    13 1   
    18     9    10 1   
    19     9    24 1   
    20    10    11 2   
    21    10    12 1   
    22    13    14 2   
    23    13    15 1   
    24    15    25 1   
    25    16    17 1   
    26    17    18 2   
    27    18    19 1   
    28    18    26 1   
@<TRIPOS>SUBSTRUCTURE
     1 68C         1 TEMP              0 ****  ****    0 ROOT
