@<TRIPOS>MOLECULE
68D
   36    38     1     0     0
SMALL
No Charge or Current Charge


@<TRIPOS>ATOM
      1 C5           2.8350     1.0340    -0.1080 cc         1 68D       0.019400
      2 C7           4.9400     1.9430    -0.2960 cd         1 68D       0.478800
      3 C15         -2.7670    -0.9620    -0.0010 ca         1 68D      -0.024000
      4 C17         -4.5690    -2.4400    -0.7500 ca         1 68D      -0.125000
      5 C20         -3.7320    -0.0810     0.5550 ca         1 68D      -0.050300
      6 C21         -3.3250     1.2090     1.2780 c3         1 68D      -0.179100
      7 C22         -2.9840     2.2980     0.2510 c          1 68D       0.727000
      8 C1           2.6100    -2.7250     0.3410 c3         1 68D      -0.032800
      9 C2           2.3140    -1.2470     0.1590 cd         1 68D       0.012700
     10 C3           1.0370    -0.6970     0.0990 cc         1 68D      -0.287600
     11 S4           1.0790     1.0560    -0.0220 ss         1 68D       0.399000
     12 N6           3.6280     2.1580    -0.2580 nc         1 68D      -0.583100
     13 N8           5.5070     0.7070    -0.2050 ns         1 68D      -0.426400
     14 C9           4.8160    -0.4510    -0.0600 c          1 68D       0.598600
     15 O10          5.3980    -1.5210    -0.0080 o          1 68D      -0.553000
     16 C11          3.3430    -0.2430     0.0050 cd         1 68D      -0.252600
     17 C12         -0.2540    -1.4410     0.0900 c          1 68D       0.634700
     18 O13         -0.3310    -2.6630     0.0990 o          1 68D      -0.627100
     19 N14         -1.3840    -0.6320     0.0790 ns         1 68D      -0.178000
     20 C16         -3.2020    -2.1340    -0.6590 ca         1 68D      -0.121000
     21 C18         -5.5190    -1.5750    -0.1920 ca         1 68D      -0.139000
     22 C19         -5.1030    -0.4010     0.4540 ca         1 68D      -0.110000
     23 O23         -3.8920     2.9940    -0.1780 o          1 68D      -0.712000
     24 O24         -1.8430     2.3230    -0.1840 o          1 68D      -0.712000
     25 H1           5.6620     2.7420    -0.4090 h5         1 68D       0.037800
     26 H2          -4.8910    -3.3450    -1.2600 ha         1 68D       0.092000
     27 H3          -4.1800     1.5320     1.8840 hc         1 68D       0.040200
     28 H4          -2.4470     0.9800     1.8910 hc         1 68D       0.040200
     29 H5           2.5870    -3.2540    -0.6190 hc         1 68D       0.053700
     30 H6           3.5810    -2.9070     0.8070 hc         1 68D       0.053700
     31 H7           1.8920    -3.2050     1.0130 hc         1 68D       0.053700
     32 H8           6.5110     0.6150    -0.2510 hn         1 68D       0.318500
     33 H9          -1.2040     0.3640     0.1160 hn         1 68D       0.242000
     34 H10         -2.4900    -2.8110    -1.1220 ha         1 68D       0.114000
     35 H11         -6.5790    -1.8100    -0.2640 ha         1 68D       0.092000
     36 H12         -5.8510     0.2650     0.8780 ha         1 68D       0.106000
@<TRIPOS>BOND
     1     1    11 1   
     2     1    12 1   
     3     1    16 2   
     4     2    12 2   
     5     2    13 1   
     6     2    25 1   
     7     3     5 ar  
     8     3    19 1   
     9     3    20 ar  
    10     4    20 ar  
    11     4    21 ar  
    12     4    26 1   
    13     5     6 1   
    14     5    22 ar  
    15     6     7 1   
    16     6    27 1   
    17     6    28 1   
    18     7    23 1   
    19     7    24 1   
    20     8     9 1   
    21     8    29 1   
    22     8    30 1   
    23     8    31 1   
    24     9    10 2   
    25     9    16 1   
    26    10    11 1   
    27    10    17 1   
    28    13    14 1   
    29    13    32 1   
    30    14    15 2   
    31    14    16 1   
    32    17    18 2   
    33    17    19 1   
    34    19    33 1   
    35    20    34 1   
    36    21    22 ar  
    37    21    35 1   
    38    22    36 1   
@<TRIPOS>SUBSTRUCTURE
     1 68D         1 TEMP              0 ****  ****    0 ROOT
