@<TRIPOS>MOLECULE
68D
   36    38     1     0     0
SMALL
abcg2


@<TRIPOS>ATOM
      1 C5           2.8570     0.7950    -0.8870 cc         1 68D       0.019400
      2 C7           4.8900     1.6790    -1.0060 cd         1 68D       0.478800
      3 C15         -2.7250    -0.9110    -0.3210 ca         1 68D      -0.024000
      4 C17         -4.5490    -2.2060    -1.2200 ca         1 68D      -0.125000
      5 C20         -3.5990    -0.2620     0.5630 ca         1 68D      -0.050300
      6 C21         -3.1100     0.7430     1.5730 c3         1 68D      -0.179100
      7 C22         -2.6790     2.1000     0.9750 c          1 68D       0.727000
      8 C1           2.3190    -2.3140     1.1750 c3         1 68D      -0.032800
      9 C2           2.1610    -1.1330     0.2730 cd         1 68D       0.012700
     10 C3           0.9950    -0.7160    -0.3100 cc         1 68D      -0.287600
     11 S4           1.1880     0.7300    -1.2590 ss         1 68D       0.399000
     12 N6           3.6570     1.7700    -1.3750 nc         1 68D      -0.583100
     13 N8           5.3740     0.7090    -0.2050 ns         1 68D      -0.426400
     14 C9           4.6230    -0.3320     0.3340 c          1 68D       0.598600
     15 O10          5.1450    -1.1720     1.0430 o          1 68D      -0.553000
     16 C11          3.2370    -0.2520    -0.0630 cd         1 68D      -0.252600
     17 C12         -0.3340    -1.3740    -0.2600 c          1 68D       0.634700
     18 O13         -0.4380    -2.5890    -0.1830 o          1 68D      -0.627100
     19 N14         -1.3750    -0.5190    -0.3220 ns         1 68D      -0.178000
     20 C16         -3.2020    -1.8780    -1.2020 ca         1 68D      -0.121000
     21 C18         -5.4290    -1.5600    -0.3640 ca         1 68D      -0.139000
     22 C19         -4.9500    -0.5970     0.5130 ca         1 68D      -0.110000
     23 O23         -3.2360     3.1220     1.3890 o          1 68D      -0.712000
     24 O24         -1.7620     2.0590     0.1100 o          1 68D      -0.712000
     25 H1           5.6110     2.4130    -1.3430 h5         1 68D       0.037800
     26 H2          -4.9090    -2.9580    -1.9090 ha         1 68D       0.092000
     27 H3          -3.8890     0.9010     2.3180 hc         1 68D       0.040200
     28 H4          -2.2470     0.3230     2.1030 hc         1 68D       0.040200
     29 H5           2.9310    -3.0830     0.7010 hc         1 68D       0.053700
     30 H6           2.8270    -2.0250     2.0940 hc         1 68D       0.053700
     31 H7           1.3630    -2.7570     1.4310 hc         1 68D       0.053700
     32 H8           6.3590     0.7310     0.0250 hn         1 68D       0.318500
     33 H9          -1.2690     0.5090    -0.1640 hn         1 68D       0.242000
     34 H10         -2.5230    -2.3630    -1.8900 ha         1 68D       0.114000
     35 H11         -6.4830    -1.8050    -0.3740 ha         1 68D       0.092000
     36 H12         -5.6360    -0.1030     1.1910 ha         1 68D       0.106000
@<TRIPOS>BOND
     1     1    11 1   
     2     1    12 1   
     3     1    16 2   
     4     2    12 2   
     5     2    13 1   
     6     2    25 1   
     7     3     5 ar  
     8     3    19 1   
     9     3    20 ar  
    10     4    20 ar  
    11     4    21 ar  
    12     4    26 1   
    13     5     6 1   
    14     5    22 ar  
    15     6     7 1   
    16     6    27 1   
    17     6    28 1   
    18     7    23 1   
    19     7    24 1   
    20     8     9 1   
    21     8    29 1   
    22     8    30 1   
    23     8    31 1   
    24     9    10 2   
    25     9    16 1   
    26    10    11 1   
    27    10    17 1   
    28    13    14 1   
    29    13    32 1   
    30    14    15 2   
    31    14    16 1   
    32    17    18 2   
    33    17    19 1   
    34    19    33 1   
    35    20    34 1   
    36    21    22 ar  
    37    21    35 1   
    38    22    36 1   
@<TRIPOS>SUBSTRUCTURE
     1 68D         1 TEMP              0 ****  ****    0 ROOT
