@<TRIPOS>MOLECULE
68E
   54    57     1     0     0
SMALL
abcg2


@<TRIPOS>ATOM
      1 C1           1.9780    -1.8710    -0.8950 ca         1 68E       0.177100
      2 C2           0.8160    -2.6060    -1.1190 ca         1 68E      -0.216000
      3 C3          -0.4010    -2.2450    -0.5600 ca         1 68E       0.024700
      4 O1          10.0990     1.1920     1.1870 oh         1 68E      -0.647000
      5 O2          -2.4760    -1.4060     1.4220 o          1 68E      -0.553100
      6 O3          -3.3220     1.0200     2.9500 o          1 68E      -0.526000
      7 C11          5.4290     1.0560     0.3960 cc         1 68E      -0.122000
      8 C12          6.8120     1.3050     0.3020 cg         1 68E      -0.072000
      9 C13          7.9960     1.5180     0.2190 c1         1 68E      -0.124100
     10 C14          9.4220     1.7880     0.1040 c3         1 68E       0.254700
     11 C16         -4.6180     0.7070     0.7010 ca         1 68E      -0.275500
     12 C17         -5.6030     0.0910     1.4240 ca         1 68E       0.043000
     13 C18         -6.7330    -0.4310     0.7680 ca         1 68E      -0.135000
     14 C19         -6.8460    -0.3390    -0.5910 ca         1 68E      -0.033000
     15 C20         -5.8320     0.2800    -1.3560 ca         1 68E      -0.103000
     16 C21         -5.8960     0.3860    -2.7620 ca         1 68E      -0.043000
     17 C22         -4.8710     0.9910    -3.4320 ca         1 68E      -0.176000
     18 C23         -3.7810     1.4870    -2.6900 ca         1 68E       0.386900
     19 C24         -4.6950     0.8220    -0.7110 ca         1 68E       0.343000
     20 O4          -3.1390     2.8290     1.2350 o          1 68E      -0.526000
     21 S1          -3.2510     1.4220     1.5610 sy         1 68E       1.194300
     22 N1          -3.6890     1.4110    -1.3880 nb         1 68E      -0.700000
     23 N           -1.8950     0.7130     0.8810 ns         1 68E      -0.564300
     24 C5          -0.4390    -1.0840     0.2260 ca         1 68E      -0.198600
     25 C4          -1.6070    -3.0930    -0.8370 c3         1 68E      -0.055800
     26 C6           0.7190    -0.3450     0.4320 ca         1 68E      -0.026000
     27 C7           1.9510    -0.7120    -0.0980 ca         1 68E      -0.050000
     28 O            3.1640    -2.2020    -1.4050 os         1 68E      -0.345100
     29 C            3.3040    -3.3690    -2.1980 c3         1 68E       0.151900
     30 C8           3.1420     0.0870     0.1860 cc         1 68E      -0.151000
     31 S            4.7260    -0.3160    -0.3790 ss         1 68E       0.296000
     32 C10          4.4770     1.7900     1.0570 cd         1 68E      -0.103000
     33 C9           3.1890     1.2400     0.9370 cd         1 68E      -0.140000
     34 H1           0.8470    -3.4870    -1.7460 ha         1 68E       0.121000
     35 H2          11.0350     1.3970     1.0910 ho         1 68E       0.445000
     36 H3           9.5680     2.8750     0.0770 h1         1 68E       0.034700
     37 H4           9.7710     1.4030    -0.8620 h1         1 68E       0.034700
     38 H5          -5.5240    -0.0020     2.4980 ha         1 68E       0.151000
     39 H6          -7.5070    -0.9110     1.3510 ha         1 68E       0.126000
     40 H7          -7.7120    -0.7440    -1.0990 ha         1 68E       0.119000
     41 H8          -6.7520    -0.0150    -3.2890 ha         1 68E       0.122000
     42 H9          -4.8790     1.0910    -4.5080 ha         1 68E       0.130000
     43 H10         -2.9560     1.9640    -3.2070 h4         1 68E       0.025100
     44 H11         -1.4280     1.2810     0.1830 hn         1 68E       0.354500
     45 H12         -1.8860    -3.6810     0.0380 hc         1 68E       0.053367
     46 H13         -2.4770    -2.4980    -1.1150 hc         1 68E       0.053367
     47 H14         -1.4050    -3.7860    -1.6510 hc         1 68E       0.053367
     48 H15          0.6630     0.5350     1.0600 ha         1 68E       0.129000
     49 H16          3.0340    -4.2680    -1.6400 h1         1 68E       0.047033
     50 H17          2.6980    -3.3110    -3.1050 h1         1 68E       0.047033
     51 H18          4.3530    -3.4240    -2.4750 h1         1 68E       0.047033
     52 H19          4.7010     2.6920     1.6070 ha         1 68E       0.140000
     53 H20          2.3250     1.6930     1.4000 ha         1 68E       0.133000
     54 C15         -1.6900    -0.6530     0.8950 c          1 68E       0.650700
@<TRIPOS>BOND
     1     1     2 ar  
     2     1    27 ar  
     3     1    28 1   
     4     2     3 ar  
     5     2    34 1   
     6     3    24 ar  
     7     3    25 1   
     8     4    10 1   
     9     4    35 1   
    10     5    54 2   
    11     6    21 2   
    12     7     8 1   
    13     7    31 1   
    14     7    32 2   
    15     8     9 3   
    16     9    10 1   
    17    10    36 1   
    18    10    37 1   
    19    11    12 ar  
    20    11    19 ar  
    21    11    21 1   
    22    12    13 ar  
    23    12    38 1   
    24    13    14 ar  
    25    13    39 1   
    26    14    15 ar  
    27    14    40 1   
    28    15    16 ar  
    29    15    19 ar  
    30    16    17 ar  
    31    16    41 1   
    32    17    18 ar  
    33    17    42 1   
    34    18    22 ar  
    35    18    43 1   
    36    19    22 ar  
    37    20    21 2   
    38    21    23 1   
    39    23    44 1   
    40    23    54 1   
    41    24    26 ar  
    42    24    54 1   
    43    25    45 1   
    44    25    46 1   
    45    25    47 1   
    46    26    27 ar  
    47    26    48 1   
    48    27    30 1   
    49    28    29 1   
    50    29    49 1   
    51    29    50 1   
    52    29    51 1   
    53    30    31 1   
    54    30    33 2   
    55    32    33 1   
    56    32    52 1   
    57    33    53 1   
@<TRIPOS>SUBSTRUCTURE
     1 68E         1 TEMP              0 ****  ****    0 ROOT
