@<TRIPOS>MOLECULE
68E
   54    57     1     0     0
SMALL
No Charge or Current Charge


@<TRIPOS>ATOM
      1 C1           1.8640    -1.9740    -1.0530 ca         1 68E       0.177100
      2 C2           0.6840    -2.7410    -1.1480 ca         1 68E      -0.216000
      3 C3          -0.4850    -2.3730    -0.4560 ca         1 68E       0.024700
      4 O1          10.0890     0.9380     0.8740 oh         1 68E      -0.647000
      5 O2          -2.5040    -1.5640     1.6160 o          1 68E      -0.553100
      6 O3          -3.3940     0.9250     3.2650 o          1 68E      -0.526000
      7 C11          5.3170     1.0880     0.1900 cc         1 68E      -0.122000
      8 C12          6.6890     1.3990     0.3790 cg         1 68E      -0.072000
      9 C13          7.8560     1.6920     0.5500 c1         1 68E      -0.124100
     10 C14          9.2520     2.0930     0.7560 c3         1 68E       0.254700
     11 C16         -4.5370     0.7860     0.8670 ca         1 68E      -0.275500
     12 C17         -5.6790     0.2540     1.5040 ca         1 68E       0.043000
     13 C18         -6.7560    -0.2200     0.7420 ca         1 68E      -0.135000
     14 C19         -6.7000    -0.1720    -0.6560 ca         1 68E      -0.033000
     15 C20         -5.5620     0.3510    -1.2950 ca         1 68E      -0.103000
     16 C21         -5.5140     0.3840    -2.7010 ca         1 68E      -0.043000
     17 C22         -4.3680     0.9010    -3.3160 ca         1 68E      -0.176000
     18 C23         -3.3190     1.3640    -2.5120 ca         1 68E       0.386900
     19 C24         -4.4600     0.8400    -0.5410 ca         1 68E       0.343000
     20 O4          -2.9240     2.7820     1.5830 o          1 68E      -0.526000
     21 S1          -3.1730     1.3670     1.8820 sy         1 68E       1.194300
     22 N1          -3.3620     1.3350    -1.1610 nb         1 68E      -0.700000
     23 N           -1.8150     0.5630     1.3360 ns         1 68E      -0.564300
     24 C5          -0.4800    -1.2110     0.3590 ca         1 68E      -0.198600
     25 C4          -1.7330    -3.2300    -0.6540 c3         1 68E      -0.055800
     26 C6           0.7080    -0.4460     0.4460 ca         1 68E      -0.026000
     27 C7           1.8760    -0.8130    -0.2490 ca         1 68E      -0.050000
     28 O            3.0110    -2.3190    -1.7470 os         1 68E      -0.345100
     29 C            3.0870    -3.4790    -2.5960 c3         1 68E       0.151900
     30 C8           3.0840     0.0090    -0.1060 cc         1 68E      -0.151000
     31 S            4.7300    -0.5760     0.1390 ss         1 68E       0.296000
     32 C10          4.2960     1.9920     0.0230 cd         1 68E      -0.103000
     33 C9           3.0220     1.3810    -0.1460 cd         1 68E      -0.140000
     34 H1           0.6560    -3.6290    -1.7710 ha         1 68E       0.121000
     35 H2          11.0030     1.2710     1.0090 ho         1 68E       0.445000
     36 H3           9.3120     2.7070     1.6640 h1         1 68E       0.034700
     37 H4           9.5690     2.7140    -0.0930 h1         1 68E       0.034700
     38 H5          -5.7440     0.2040     2.5900 ha         1 68E       0.151000
     39 H6          -7.6350    -0.6270     1.2380 ha         1 68E       0.126000
     40 H7          -7.5390    -0.5440    -1.2410 ha         1 68E       0.119000
     41 H8          -6.3440     0.0150    -3.3010 ha         1 68E       0.122000
     42 H9          -4.2860     0.9460    -4.3980 ha         1 68E       0.130000
     43 H10         -2.4130     1.7710    -2.9610 h4         1 68E       0.025100
     44 H11         -1.2300     1.1810     0.8040 hn         1 68E       0.354500
     45 H12         -1.9530    -3.8200     0.2440 hc         1 68E       0.053367
     46 H13         -2.6090    -2.6120    -0.8820 hc         1 68E       0.053367
     47 H14         -1.6180    -3.9350    -1.4850 hc         1 68E       0.053367
     48 H15          0.7480     0.4280     1.0920 ha         1 68E       0.129000
     49 H16          2.8980    -4.3950    -2.0220 h1         1 68E       0.047033
     50 H17          2.3570    -3.4150    -3.4120 h1         1 68E       0.047033
     51 H18          4.0870    -3.5580    -3.0410 h1         1 68E       0.047033
     52 H19          4.4460     3.0680     0.0190 ha         1 68E       0.140000
     53 H20          2.1060     1.9450    -0.2960 ha         1 68E       0.133000
     54 C15         -1.7010    -0.7750     1.1420 c          1 68E       0.650700
@<TRIPOS>BOND
     1     1     2 ar  
     2     1    27 ar  
     3     1    28 1   
     4     2     3 ar  
     5     2    34 1   
     6     3    24 ar  
     7     3    25 1   
     8     4    10 1   
     9     4    35 1   
    10     5    54 2   
    11     6    21 2   
    12     7     8 1   
    13     7    31 1   
    14     7    32 2   
    15     8     9 3   
    16     9    10 1   
    17    10    36 1   
    18    10    37 1   
    19    11    12 ar  
    20    11    19 ar  
    21    11    21 1   
    22    12    13 ar  
    23    12    38 1   
    24    13    14 ar  
    25    13    39 1   
    26    14    15 ar  
    27    14    40 1   
    28    15    16 ar  
    29    15    19 ar  
    30    16    17 ar  
    31    16    41 1   
    32    17    18 ar  
    33    17    42 1   
    34    18    22 ar  
    35    18    43 1   
    36    19    22 ar  
    37    20    21 2   
    38    21    23 1   
    39    23    44 1   
    40    23    54 1   
    41    24    26 ar  
    42    24    54 1   
    43    25    45 1   
    44    25    46 1   
    45    25    47 1   
    46    26    27 ar  
    47    26    48 1   
    48    27    30 1   
    49    28    29 1   
    50    29    49 1   
    51    29    50 1   
    52    29    51 1   
    53    30    31 1   
    54    30    33 2   
    55    32    33 1   
    56    32    52 1   
    57    33    53 1   
@<TRIPOS>SUBSTRUCTURE
     1 68E         1 TEMP              0 ****  ****    0 ROOT
