@<TRIPOS>MOLECULE
68F
   48    49     1     0     0
SMALL
bcc


@<TRIPOS>ATOM
      1 OAG          4.5290     1.7150     1.5310 oh         1 68F      -0.565800
      2 CAC          4.3240     0.4030     1.0880 c5         1 68F       0.133100
      3 CAB          5.4820    -0.2480     0.3370 c5         1 68F       0.105600
      4 OAH          5.9990     0.6900    -0.5770 oh         1 68F      -0.566300
      5 CAA          4.7580    -1.4170    -0.3340 c5         1 68F       0.138500
      6 CAI          5.4830    -2.0310    -1.5180 c3         1 68F      -0.085100
      7 NAE          3.4570    -0.8560    -0.7200 n7         1 68F      -0.810200
      8 CAD          3.1810     0.3460     0.0710 c5         1 68F       0.176500
      9 CAF          1.8040     0.3460     0.7160 c3         1 68F      -0.089900
     10 CAJ          0.6520     0.3720    -0.2830 c3         1 68F      -0.074400
     11 CAK         -0.7140     0.3910     0.3910 c3         1 68F      -0.074400
     12 CAL         -1.8610     0.4210    -0.6130 c3         1 68F      -0.089900
     13 CAM         -3.2430     0.4430     0.0230 c5         1 68F       0.176500
     14 NAQ         -3.5880    -0.7930     0.7300 n7         1 68F      -0.810200
     15 CAP         -4.8880    -1.2870     0.2600 c5         1 68F       0.138500
     16 CAR         -5.6640    -1.9820     1.3640 c3         1 68F      -0.085100
     17 CAO         -5.5610    -0.0450    -0.3260 c5         1 68F       0.105600
     18 OAS         -6.0670     0.8330     0.6500 oh         1 68F      -0.566300
     19 CAN         -4.3670     0.6250    -1.0010 c5         1 68F       0.133100
     20 OAT         -4.5190     1.9760    -1.3320 oh         1 68F      -0.565800
     21 H1           5.1390     1.6980     2.2740 ho         1 68F       0.404000
     22 H2           4.0700    -0.2650     1.9260 h1         1 68F       0.025700
     23 H3           6.2680    -0.6150     1.0120 h1         1 68F       0.035200
     24 H4           6.7060     0.2690    -1.0740 ho         1 68F       0.400500
     25 H5           4.6430    -2.1970     0.4310 h1         1 68F       0.022200
     26 H6           6.4670    -2.4090    -1.2320 hc         1 68F       0.040533
     27 H7           4.9160    -2.8730    -1.9160 hc         1 68F       0.040533
     28 H8           5.6080    -1.3090    -2.3260 hc         1 68F       0.040533
     29 H9           2.7280    -1.5470    -0.6110 hn         1 68F       0.358300
     30 H11          3.2550     1.2350    -0.5720 h1         1 68F       0.095700
     31 H12          1.7110    -0.5320     1.3650 hc         1 68F       0.043950
     32 H13          1.7270     1.2210     1.3700 hc         1 68F       0.043950
     33 H14          0.7540     1.2510    -0.9300 hc         1 68F       0.043200
     34 H15          0.7080    -0.4980    -0.9460 hc         1 68F       0.043200
     35 H16         -0.8030    -0.4850     1.0410 hc         1 68F       0.043200
     36 H17         -0.7870     1.2640     1.0480 hc         1 68F       0.043200
     37 H18         -1.7570     1.3080    -1.2450 hc         1 68F       0.043950
     38 H19         -1.7890    -0.4440    -1.2830 hc         1 68F       0.043950
     39 H20         -3.2830     1.2910     0.7220 h1         1 68F       0.095700
     40 H21         -2.8750    -1.5000     0.6150 hn         1 68F       0.358300
     41 H23         -4.7720    -2.0010    -0.5680 h1         1 68F       0.022200
     42 H24         -5.7890    -1.3330     2.2320 hc         1 68F       0.040533
     43 H25         -6.6500    -2.2990     1.0190 hc         1 68F       0.040533
     44 H26         -5.1340    -2.8740     1.6980 hc         1 68F       0.040533
     45 H27         -6.3420    -0.3270    -1.0460 h1         1 68F       0.035200
     46 H28         -6.8030     0.3990     1.0930 ho         1 68F       0.400500
     47 H29         -4.1220     0.0240    -1.8900 h1         1 68F       0.025700
     48 H30         -5.0990     2.0420    -2.0960 ho         1 68F       0.404000
@<TRIPOS>BOND
     1     1     2 1   
     2     1    21 1   
     3     2     3 1   
     4     2     8 1   
     5     2    22 1   
     6     3     4 1   
     7     3     5 1   
     8     3    23 1   
     9     4    24 1   
    10     5     6 1   
    11     5     7 1   
    12     5    25 1   
    13     6    26 1   
    14     6    27 1   
    15     6    28 1   
    16     7     8 1   
    17     7    29 1   
    18     8     9 1   
    19     8    30 1   
    20     9    10 1   
    21     9    31 1   
    22     9    32 1   
    23    10    11 1   
    24    10    33 1   
    25    10    34 1   
    26    11    12 1   
    27    11    35 1   
    28    11    36 1   
    29    12    13 1   
    30    12    37 1   
    31    12    38 1   
    32    13    14 1   
    33    13    19 1   
    34    13    39 1   
    35    14    15 1   
    36    14    40 1   
    37    15    16 1   
    38    15    17 1   
    39    15    41 1   
    40    16    42 1   
    41    16    43 1   
    42    16    44 1   
    43    17    18 1   
    44    17    19 1   
    45    17    45 1   
    46    18    46 1   
    47    19    20 1   
    48    19    47 1   
    49    20    48 1   
@<TRIPOS>SUBSTRUCTURE
     1 68F         1 TEMP              0 ****  ****    0 ROOT
