@<TRIPOS>MOLECULE
68F
   48    49     1     0     0
SMALL
No Charge or Current Charge


@<TRIPOS>ATOM
      1 OAG          4.8710     1.8540     1.4660 oh         1 68F      -0.628000
      2 CAC          4.4020     0.5350     1.1640 c5         1 68F       0.156300
      3 CAB          5.4970    -0.3190     0.4560 c5         1 68F       0.128800
      4 OAH          6.0990     0.3910    -0.6360 oh         1 68F      -0.628500
      5 CAA          4.5640    -1.4570    -0.0560 c5         1 68F       0.138500
      6 CAI          5.2300    -2.5040    -0.9730 c3         1 68F      -0.085100
      7 NAE          3.5090    -0.6970    -0.7640 n7         1 68F      -0.865400
      8 CAD          3.2420     0.5010     0.0930 c5         1 68F       0.176500
      9 CAF          1.8280     0.4540     0.7240 c3         1 68F      -0.089900
     10 CAJ          0.6640     0.5130    -0.2950 c3         1 68F      -0.074400
     11 CAK         -0.7270     0.5080     0.3780 c3         1 68F      -0.074400
     12 CAL         -1.8910     0.5690    -0.6400 c3         1 68F      -0.089900
     13 CAM         -3.3040     0.6100    -0.0060 c5         1 68F       0.176500
     14 NAQ         -3.6100    -0.6430     0.7540 n7         1 68F      -0.865400
     15 CAP         -4.6890    -1.3100    -0.0110 c5         1 68F       0.138500
     16 CAR         -5.3900    -2.4050     0.8200 c3         1 68F      -0.085100
     17 CAO         -5.5840    -0.1040    -0.4290 c5         1 68F       0.128800
     18 OAS         -6.1640     0.5350     0.7170 oh         1 68F      -0.628500
     19 CAN         -4.4610     0.7670    -1.0690 c5         1 68F       0.156300
     20 OAT         -4.8870     2.1200    -1.2640 oh         1 68F      -0.628000
     21 H1           5.5740     2.0290     0.8010 ho         1 68F       0.443000
     22 H2           4.0810     0.0340     2.0890 h1         1 68F       0.025700
     23 H3           6.2570    -0.6860     1.1590 h1         1 68F       0.035200
     24 H4           5.4360     0.2920    -1.3590 ho         1 68F       0.439500
     25 H5           4.1260    -1.9940     0.7980 h1         1 68F       0.022200
     26 H6           6.0490    -3.0130    -0.4510 hc         1 68F       0.040533
     27 H7           4.5080    -3.2690    -1.2830 hc         1 68F       0.040533
     28 H8           5.6430    -2.0470    -1.8800 hc         1 68F       0.040533
     29 H9           2.6590    -1.2670    -0.8510 hn         1 68F       0.413500
     30 H11          3.2910     1.4090    -0.5270 h1         1 68F       0.095700
     31 H12          1.7250    -0.4530     1.3310 hc         1 68F       0.043950
     32 H13          1.7230     1.2990     1.4160 hc         1 68F       0.043950
     33 H14          0.7660     1.4190    -0.9040 hc         1 68F       0.043200
     34 H15          0.7310    -0.3420    -0.9790 hc         1 68F       0.043200
     35 H16         -0.8220    -0.3960     0.9920 hc         1 68F       0.043200
     36 H17         -0.8010     1.3660     1.0590 hc         1 68F       0.043200
     37 H18         -1.7580     1.4620    -1.2630 hc         1 68F       0.043950
     38 H19         -1.8160    -0.2900    -1.3180 hc         1 68F       0.043950
     39 H20         -3.3240     1.4660     0.6850 h1         1 68F       0.095700
     40 H21         -2.7790    -1.2450     0.7930 hn         1 68F       0.413500
     41 H23         -4.2680    -1.7910    -0.9070 h1         1 68F       0.022200
     42 H24         -5.7880    -2.0090     1.7610 hc         1 68F       0.040533
     43 H25         -6.2240    -2.8430     0.2600 hc         1 68F       0.040533
     44 H26         -4.6930    -3.2140     1.0660 hc         1 68F       0.040533
     45 H27         -6.3550    -0.3900    -1.1580 h1         1 68F       0.035200
     46 H28         -5.5060     0.3570     1.4280 ho         1 68F       0.439500
     47 H29         -4.1550     0.3310    -2.0310 h1         1 68F       0.025700
     48 H30         -5.5850     2.2640    -0.5860 ho         1 68F       0.443000
@<TRIPOS>BOND
     1     1     2 1   
     2     1    21 1   
     3     2     3 1   
     4     2     8 1   
     5     2    22 1   
     6     3     4 1   
     7     3     5 1   
     8     3    23 1   
     9     4    24 1   
    10     5     6 1   
    11     5     7 1   
    12     5    25 1   
    13     6    26 1   
    14     6    27 1   
    15     6    28 1   
    16     7     8 1   
    17     7    29 1   
    18     8     9 1   
    19     8    30 1   
    20     9    10 1   
    21     9    31 1   
    22     9    32 1   
    23    10    11 1   
    24    10    33 1   
    25    10    34 1   
    26    11    12 1   
    27    11    35 1   
    28    11    36 1   
    29    12    13 1   
    30    12    37 1   
    31    12    38 1   
    32    13    14 1   
    33    13    19 1   
    34    13    39 1   
    35    14    15 1   
    36    14    40 1   
    37    15    16 1   
    38    15    17 1   
    39    15    41 1   
    40    16    42 1   
    41    16    43 1   
    42    16    44 1   
    43    17    18 1   
    44    17    19 1   
    45    17    45 1   
    46    18    46 1   
    47    19    20 1   
    48    19    47 1   
    49    20    48 1   
@<TRIPOS>SUBSTRUCTURE
     1 68F         1 TEMP              0 ****  ****    0 ROOT
