@<TRIPOS>MOLECULE
68H
   38    38     1     0     0
SMALL
bcc


@<TRIPOS>ATOM
      1 O2           3.6720     2.4780    -1.2020 oh         1 68H      -0.602800
      2 C2           4.1440     1.4920    -0.3200 c3         1 68H       0.196700
      3 C12          3.0640     0.4770    -0.0610 ca         1 68H      -0.119300
      4 C11          3.3420    -0.6180     0.7630 ca         1 68H       0.137100
      5 O1           4.5820    -0.6920     1.2940 oh         1 68H      -0.503100
      6 C10          2.3680    -1.5800     1.0040 ca         1 68H      -0.228000
      7 C9           1.1090    -1.4570     0.4370 ca         1 68H      -0.060000
      8 C13          1.7960     0.5750    -0.6180 ca         1 68H      -0.061000
      9 C8           0.8060    -0.3740    -0.3790 ca         1 68H      -0.126300
     10 C1          -0.5710    -0.1970    -0.9560 c3         1 68H       0.202400
     11 O3          -1.0650    -1.4210    -1.4400 oh         1 68H      -0.601800
     12 C3          -1.5470     0.3490     0.0940 c3         1 68H       0.119800
     13 N1          -2.8870     0.2940    -0.4630 n7         1 68H      -0.844200
     14 C4          -4.0190     0.2500     0.4720 c3         1 68H       0.198200
     15 C7          -3.9810     1.3920     1.4940 c3         1 68H      -0.097767
     16 C6          -5.2850     0.3670    -0.3730 c3         1 68H      -0.097767
     17 C5          -4.0270    -1.0940     1.2010 c3         1 68H      -0.097767
     18 H2           4.3870     3.1000    -1.3620 ho         1 68H       0.406000
     19 H21C         5.0270     0.9810    -0.7280 h1         1 68H       0.032200
     20 H22C         4.4620     1.9300     0.6360 h1         1 68H       0.032200
     21 H13          1.5680     1.4110    -1.2670 ha         1 68H       0.149000
     22 H1           4.6650    -1.4780     1.8450 ho         1 68H       0.426000
     23 H10          2.5960    -2.4310     1.6360 ha         1 68H       0.130000
     24 H9           0.3650    -2.2180     0.6350 ha         1 68H       0.142000
     25 HA          -0.5100     0.5430    -1.7710 h1         1 68H       0.034700
     26 H3          -2.0310    -1.3050    -1.4010 ho         1 68H       0.432000
     27 H31C        -1.5020    -0.2920     0.9780 h1         1 68H       0.045200
     28 H32C        -1.2290     1.3510     0.4070 h1         1 68H       0.045200
     29 HB          -3.0120     1.0760    -1.0960 hn         1 68H       0.361800
     30 H71C        -3.9740     2.3640     0.9960 hc         1 68H       0.039033
     31 H72C        -4.8540     1.3570     2.1470 hc         1 68H       0.039033
     32 H73C        -3.0940     1.3320     2.1270 hc         1 68H       0.039033
     33 H61C        -5.3430    -0.4410    -1.1050 hc         1 68H       0.039033
     34 H62C        -6.1770     0.3250     0.2530 hc         1 68H       0.039033
     35 H63C        -5.3090     1.3150    -0.9150 hc         1 68H       0.039033
     36 H51C        -3.1760    -1.2070     1.8750 hc         1 68H       0.039033
     37 H52C        -4.9290    -1.1850     1.8100 hc         1 68H       0.039033
     38 H53C        -4.0100    -1.9220     0.4910 hc         1 68H       0.039033
@<TRIPOS>BOND
     1     1     2 1   
     2     1    18 1   
     3     2     3 1   
     4     2    19 1   
     5     2    20 1   
     6     3     4 ar  
     7     3     8 ar  
     8     4     5 1   
     9     4     6 ar  
    10     5    22 1   
    11     6     7 ar  
    12     6    23 1   
    13     7     9 ar  
    14     7    24 1   
    15     8     9 ar  
    16     8    21 1   
    17     9    10 1   
    18    10    11 1   
    19    10    12 1   
    20    10    25 1   
    21    11    26 1   
    22    12    13 1   
    23    12    27 1   
    24    12    28 1   
    25    13    14 1   
    26    13    29 1   
    27    14    15 1   
    28    14    16 1   
    29    14    17 1   
    30    15    30 1   
    31    15    31 1   
    32    15    32 1   
    33    16    33 1   
    34    16    34 1   
    35    16    35 1   
    36    17    36 1   
    37    17    37 1   
    38    17    38 1   
@<TRIPOS>SUBSTRUCTURE
     1 68H         1 TEMP              0 ****  ****    0 ROOT
