@<TRIPOS>MOLECULE
68H
   38    38     1     0     0
SMALL
No Charge or Current Charge


@<TRIPOS>ATOM
      1 O2           4.6820     1.5460    -1.6630 oh         1 68H      -0.665000
      2 C2           4.3340     1.4960    -0.2740 c3         1 68H       0.219900
      3 C12          3.1960     0.5020    -0.0470 ca         1 68H      -0.119300
      4 C11          3.3860    -0.7060     0.6620 ca         1 68H       0.137100
      5 O1           4.6070    -1.0390     1.1730 oh         1 68H      -0.542100
      6 C10          2.3110    -1.5870     0.8540 ca         1 68H      -0.210000
      7 C9           1.0390    -1.2750     0.3470 ca         1 68H      -0.042000
      8 C13          1.9150     0.8070    -0.5510 ca         1 68H      -0.043000
      9 C8           0.8310    -0.0730    -0.3590 ca         1 68H      -0.126300
     10 C1          -0.5500     0.2840    -0.9090 c3         1 68H       0.225600
     11 O3          -1.0540    -0.7500    -1.7490 oh         1 68H      -0.664000
     12 C3          -1.6270     0.4920     0.1910 c3         1 68H       0.119800
     13 N1          -2.9960     0.2780    -0.3870 n7         1 68H      -0.899400
     14 C4          -4.1400     0.1220     0.5380 c3         1 68H       0.198200
     15 C7          -4.2450     1.3580     1.4660 c3         1 68H      -0.097767
     16 C6          -5.4020     0.0240    -0.3480 c3         1 68H      -0.097767
     17 C5          -3.9800    -1.1800     1.3610 c3         1 68H      -0.097767
     18 H2           5.4250     2.1850    -1.7430 ho         1 68H       0.445000
     19 H21C         5.2120     1.2260     0.3270 h1         1 68H       0.032200
     20 H22C         4.0060     2.4870     0.0680 h1         1 68H       0.032200
     21 H13          1.7640     1.7370    -1.0960 ha         1 68H       0.131000
     22 H1           4.5290    -1.9100     1.6170 ho         1 68H       0.465000
     23 H10          2.4510    -2.5180     1.3980 ha         1 68H       0.112000
     24 H9           0.2140    -1.9690     0.5000 ha         1 68H       0.124000
     25 HA          -0.4790     1.2140    -1.4890 h1         1 68H       0.034700
     26 H3          -2.0100    -0.7290    -1.4750 ho         1 68H       0.471000
     27 H31C        -1.4310    -0.2240     0.9980 h1         1 68H       0.045200
     28 H32C        -1.5210     1.5000     0.6150 h1         1 68H       0.045200
     29 HB          -3.2080     1.0790    -0.9970 hn         1 68H       0.417000
     30 H71C        -4.2920     2.2860     0.8830 hc         1 68H       0.039033
     31 H72C        -5.1500     1.3000     2.0820 hc         1 68H       0.039033
     32 H73C        -3.3870     1.4230     2.1460 hc         1 68H       0.039033
     33 H61C        -5.3380    -0.8340    -1.0290 hc         1 68H       0.039033
     34 H62C        -6.3010    -0.1000     0.2670 hc         1 68H       0.039033
     35 H63C        -5.5310     0.9300    -0.9530 hc         1 68H       0.039033
     36 H51C        -3.1450    -1.1140     2.0670 hc         1 68H       0.039033
     37 H52C        -4.8870    -1.3790     1.9460 hc         1 68H       0.039033
     38 H53C        -3.8070    -2.0410     0.7030 hc         1 68H       0.039033
@<TRIPOS>BOND
     1     1     2 1   
     2     1    18 1   
     3     2     3 1   
     4     2    19 1   
     5     2    20 1   
     6     3     4 ar  
     7     3     8 ar  
     8     4     5 1   
     9     4     6 ar  
    10     5    22 1   
    11     6     7 ar  
    12     6    23 1   
    13     7     9 ar  
    14     7    24 1   
    15     8     9 ar  
    16     8    21 1   
    17     9    10 1   
    18    10    11 1   
    19    10    12 1   
    20    10    25 1   
    21    11    26 1   
    22    12    13 1   
    23    12    27 1   
    24    12    28 1   
    25    13    14 1   
    26    13    29 1   
    27    14    15 1   
    28    14    16 1   
    29    14    17 1   
    30    15    30 1   
    31    15    31 1   
    32    15    32 1   
    33    16    33 1   
    34    16    34 1   
    35    16    35 1   
    36    17    36 1   
    37    17    37 1   
    38    17    38 1   
@<TRIPOS>SUBSTRUCTURE
     1 68H         1 TEMP              0 ****  ****    0 ROOT
