@<TRIPOS>MOLECULE
68J
   83    87     1     0     0
SMALL
No Charge or Current Charge


@<TRIPOS>ATOM
      1 C16         14.5990   -39.9100    13.9990 c3         1 68J      -0.084767
      2 C15         13.1650   -40.4220    13.6990 c3         1 68J      -0.039000
      3 C17         12.9570   -41.7760    14.4290 c3         1 68J      -0.084767
      4 C18         12.1470   -39.3810    14.2370 c3         1 68J      -0.084767
      5 C14         13.0170   -40.5970    12.1550 c3         1 68J      -0.097400
      6 C13         11.6390   -41.0860    11.6480 c3         1 68J       0.105000
      7 N2          11.6150   -41.1850    10.1880 ns         1 68J      -0.499900
      8 C12         12.1080   -42.2470     9.4640 c          1 68J       0.601100
      9 O1          12.5050   -43.2760     9.9920 o          1 68J      -0.611100
     10 C11         12.1000   -42.0490     7.9450 c3         1 68J      -0.161400
     11 C10         13.5250   -41.7850     7.4070 c3         1 68J      -0.013100
     12 C8          14.1690   -40.5600     8.0580 ca         1 68J      -0.185300
     13 C7          13.9160   -39.2420     7.6340 ca         1 68J       0.607900
     14 N1          14.4210   -38.1470     8.1850 nb         1 68J      -0.758000
     15 N3          13.1270   -38.9050     6.6090 nv         1 68J      -1.065900
     16 C9          15.0250   -40.7240     9.1600 ca         1 68J      -0.018000
     17 C5          15.5620   -39.5780     9.7690 ca         1 68J      -0.127000
     18 C6          16.4110   -39.7070    10.8830 ca         1 68J      -0.053000
     19 C4          15.2400   -38.3000     9.2510 ca         1 68J       0.321000
     20 C3          15.7910   -37.1680     9.8770 ca         1 68J      -0.107000
     21 C2          16.6460   -37.2970    10.9860 ca         1 68J      -0.076000
     22 C1          16.9810   -38.5700    11.5030 cp         1 68J      -0.057000
     23 C19         17.8930   -38.6980    12.6830 cp         1 68J      -0.018000
     24 C24         17.6170   -37.9530    13.8560 ca         1 68J      -0.103000
     25 C23         18.4380   -38.0490    14.9910 ca         1 68J      -0.104000
     26 C22         19.5610   -38.8880    14.9730 ca         1 68J      -0.109000
     27 C21         19.8660   -39.6260    13.8180 ca         1 68J      -0.091000
     28 C20         19.0470   -39.5370    12.6750 ca         1 68J       0.045000
     29 C25         19.4320   -40.2840    11.5100 cg         1 68J      -0.123000
     30 C26         19.7290   -40.9030    10.5080 c1         1 68J      -0.113100
     31 C27         20.0310   -41.6330     9.2660 c3         1 68J       0.027700
     32 C28         19.8670   -40.8430     7.9510 cx         1 68J       0.046400
     33 C29         20.2690   -39.3840     7.8570 cx         1 68J      -0.115900
     34 C30         18.8090   -39.7660     7.8100 cx         1 68J      -0.115900
     35 N4          20.0790   -41.6300     6.7620 ns         1 68J      -0.479900
     36 C31         21.3110   -42.0280     6.2800 c          1 68J       0.614700
     37 O2          22.3500   -41.7290     6.8550 o          1 68J      -0.588100
     38 C32         21.3090   -42.8530     5.0080 ca         1 68J      -0.170600
     39 C33         22.5410   -43.2950     4.4700 ca         1 68J      -0.046000
     40 C34         22.5760   -44.0620     3.2920 ca         1 68J      -0.163000
     41 C35         21.3830   -44.3950     2.6390 ca         1 68J       0.193000
     42 F1          21.4190   -45.1320     1.5070 f          1 68J      -0.173000
     43 C36         20.1530   -43.9670     3.1550 ca         1 68J      -0.163000
     44 C37         20.1100   -43.2000     4.3330 ca         1 68J      -0.046000
     45 H1          14.7520   -39.7710    15.0760 hc         1 68J       0.033033
     46 H2          15.3540   -40.6200    13.6410 hc         1 68J       0.033033
     47 H3          14.7780   -38.9470    13.5070 hc         1 68J       0.033033
     48 H4          13.1450   -41.6720    15.5040 hc         1 68J       0.033033
     49 H5          11.9310   -42.1430    14.3080 hc         1 68J       0.033033
     50 H6          13.6410   -42.5400    14.0390 hc         1 68J       0.033033
     51 H7          12.3130   -39.1880    15.3040 hc         1 68J       0.033033
     52 H8          12.2420   -38.4270    13.7040 hc         1 68J       0.033033
     53 H9          11.1150   -39.7340    14.1250 hc         1 68J       0.033033
     54 H10         13.7820   -41.3020    11.8070 hc         1 68J       0.050200
     55 H11         13.2400   -39.6390    11.6680 hc         1 68J       0.050200
     56 H12         10.8550   -40.3820    11.9540 h1         1 68J       0.053700
     57 H13         11.4020   -42.0680    12.0760 h1         1 68J       0.053700
     58 H14         11.3020   -40.3810     9.6560 hn         1 68J       0.315500
     59 H15         11.4630   -41.1970     7.6780 hc         1 68J       0.062200
     60 H16         11.7170   -42.9600     7.4710 hc         1 68J       0.062200
     61 H17         14.1430   -42.6750     7.5840 hc         1 68J       0.052700
     62 H18         13.4840   -41.6670     6.3170 hc         1 68J       0.052700
     63 H19         13.2330   -37.9460     6.3040 hn         1 68J       0.471500
     64 H20         12.9740   -39.5970     5.8870 hn         1 68J       0.471500
     65 H21         15.2540   -41.7170     9.5430 ha         1 68J       0.128000
     66 H22         16.6340   -40.6960    11.2770 ha         1 68J       0.124000
     67 H23         15.5540   -36.1790     9.4960 ha         1 68J       0.130000
     68 H24         17.0630   -36.4030    11.4440 ha         1 68J       0.119000
     69 H25         16.7460   -37.3030    13.8860 ha         1 68J       0.119000
     70 H26         18.2020   -37.4730    15.8840 ha         1 68J       0.116000
     71 H27         20.2000   -38.9630    15.8510 ha         1 68J       0.117000
     72 H28         20.7470   -40.2650    13.8090 ha         1 68J       0.121000
     73 H29         19.3870   -42.5190     9.2330 hc         1 68J       0.070200
     74 H30         21.0590   -42.0090     9.3370 hc         1 68J       0.070200
     75 H31         20.6340   -38.8880     8.7530 hc         1 68J       0.083200
     76 H32         20.7310   -39.0410     6.9350 hc         1 68J       0.083200
     77 H33         18.2950   -39.6720     6.8570 hc         1 68J       0.083200
     78 H34         18.1990   -39.5090     8.6710 hc         1 68J       0.083200
     79 H35         19.2740   -41.9260     6.2270 hn         1 68J       0.316500
     80 H36         23.4780   -43.0460     4.9640 ha         1 68J       0.128500
     81 H37         23.5270   -44.3970     2.8860 ha         1 68J       0.136000
     82 H38         19.2320   -44.2300     2.6410 ha         1 68J       0.136000
     83 H39         19.1380   -42.8850     4.7030 ha         1 68J       0.128500
@<TRIPOS>BOND
     1     1     2 1   
     2     1    45 1   
     3     1    46 1   
     4     1    47 1   
     5     2     3 1   
     6     2     4 1   
     7     2     5 1   
     8     3    48 1   
     9     3    49 1   
    10     3    50 1   
    11     4    51 1   
    12     4    52 1   
    13     4    53 1   
    14     5     6 1   
    15     5    54 1   
    16     5    55 1   
    17     6     7 1   
    18     6    56 1   
    19     6    57 1   
    20     7     8 1   
    21     7    58 1   
    22     8     9 2   
    23     8    10 1   
    24    10    11 1   
    25    10    59 1   
    26    10    60 1   
    27    11    12 1   
    28    11    61 1   
    29    11    62 1   
    30    12    13 ar  
    31    12    16 ar  
    32    13    14 ar  
    33    13    15 1   
    34    14    19 ar  
    35    15    63 1   
    36    15    64 1   
    37    16    17 ar  
    38    16    65 1   
    39    17    18 ar  
    40    17    19 ar  
    41    18    22 ar  
    42    18    66 1   
    43    19    20 ar  
    44    20    21 ar  
    45    20    67 1   
    46    21    22 ar  
    47    21    68 1   
    48    22    23 1   
    49    23    24 ar  
    50    23    28 ar  
    51    24    25 ar  
    52    24    69 1   
    53    25    26 ar  
    54    25    70 1   
    55    26    27 ar  
    56    26    71 1   
    57    27    28 ar  
    58    27    72 1   
    59    28    29 1   
    60    29    30 3   
    61    30    31 1   
    62    31    32 1   
    63    31    73 1   
    64    31    74 1   
    65    32    33 1   
    66    32    34 1   
    67    32    35 1   
    68    33    34 1   
    69    33    75 1   
    70    33    76 1   
    71    34    77 1   
    72    34    78 1   
    73    35    36 1   
    74    35    79 1   
    75    36    37 2   
    76    36    38 1   
    77    38    39 ar  
    78    38    44 ar  
    79    39    40 ar  
    80    39    80 1   
    81    40    41 ar  
    82    40    81 1   
    83    41    42 1   
    84    41    43 ar  
    85    43    44 ar  
    86    43    82 1   
    87    44    83 1   
@<TRIPOS>SUBSTRUCTURE
     1 68J         1 TEMP              0 ****  ****    0 ROOT
