@<TRIPOS>MOLECULE
68J
   83    87     1     0     0
SMALL
abcg2


@<TRIPOS>ATOM
      1 C16         14.0420   -38.9730    13.7380 c3         1 68J      -0.084767
      2 C15         12.6330   -39.5060    13.4710 c3         1 68J      -0.039000
      3 C17         12.3180   -40.6010    14.4930 c3         1 68J      -0.084767
      4 C18         11.6340   -38.3560    13.6230 c3         1 68J      -0.084767
      5 C14         12.6090   -40.0650    12.0410 c3         1 68J      -0.097400
      6 C13         11.2740   -40.6350    11.5680 c3         1 68J       0.105000
      7 N2          11.3300   -41.0830    10.1920 ns         1 68J      -0.499900
      8 C12         11.8170   -42.2760     9.8190 c          1 68J       0.601100
      9 O1          12.1490   -43.1450    10.6160 o          1 68J      -0.611100
     10 C11         11.9730   -42.4630     8.3270 c3         1 68J      -0.161400
     11 C10         13.4660   -42.4480     7.9540 c3         1 68J      -0.013100
     12 C8          14.2020   -41.2700     8.5240 ca         1 68J      -0.185300
     13 C7          13.9370   -39.9260     8.0810 ca         1 68J       0.607900
     14 N1          14.5010   -38.8690     8.6120 nb         1 68J      -0.758000
     15 N3          13.0200   -39.7150     7.0950 nv         1 68J      -1.065900
     16 C9          15.1080   -41.4220     9.5270 ca         1 68J      -0.018000
     17 C5          15.7470   -40.3020    10.1140 ca         1 68J      -0.127000
     18 C6          16.6940   -40.4160    11.1450 ca         1 68J      -0.053000
     19 C4          15.3880   -39.0290     9.6200 ca         1 68J       0.321000
     20 C3          15.9880   -37.8920    10.1990 ca         1 68J      -0.107000
     21 C2          16.9030   -38.0270    11.2110 ca         1 68J      -0.076000
     22 C1          17.2790   -39.2980    11.6950 cp         1 68J      -0.057000
     23 C19         18.2610   -39.4060    12.7940 cp         1 68J      -0.018000
     24 C24         17.9950   -38.7950    14.0170 ca         1 68J      -0.103000
     25 C23         18.8890   -38.8830    15.0740 ca         1 68J      -0.104000
     26 C22         20.0750   -39.5890    14.9190 ca         1 68J      -0.109000
     27 C21         20.3650   -40.1890    13.7060 ca         1 68J      -0.091000
     28 C20         19.4720   -40.1010    12.6340 ca         1 68J       0.045000
     29 C25         19.8220   -40.6810    11.3780 cg         1 68J      -0.123000
     30 C26         20.1280   -41.1630    10.3160 c1         1 68J      -0.113100
     31 C27         20.4560   -41.7330     9.0210 c3         1 68J       0.027700
     32 C28         19.9600   -40.9120     7.8340 cx         1 68J       0.046400
     33 C29         20.0190   -39.4200     7.8550 cx         1 68J      -0.115900
     34 C30         18.6960   -40.1180     7.9290 cx         1 68J      -0.115900
     35 N4          20.1970   -41.5540     6.5790 ns         1 68J      -0.479900
     36 C31         21.4040   -41.5540     5.9770 c          1 68J       0.614700
     37 O2          22.3830   -41.0000     6.4540 o          1 68J      -0.588100
     38 C32         21.4860   -42.2820     4.6740 ca         1 68J      -0.170600
     39 C33         22.7320   -42.7520     4.2630 ca         1 68J      -0.046000
     40 C34         22.8760   -43.4300     3.0650 ca         1 68J      -0.163000
     41 C35         21.7590   -43.6170     2.2730 ca         1 68J       0.193000
     42 F1          21.8910   -44.2690     1.1110 f          1 68J      -0.173000
     43 C36         20.5110   -43.1480     2.6380 ca         1 68J      -0.163000
     44 C37         20.3830   -42.4800     3.8460 ca         1 68J      -0.046000
     45 H1          14.1190   -38.5560    14.7450 hc         1 68J       0.033033
     46 H2          14.7900   -39.7630    13.6420 hc         1 68J       0.033033
     47 H3          14.3100   -38.1890    13.0270 hc         1 68J       0.033033
     48 H4          12.3840   -40.2090    15.5100 hc         1 68J       0.033033
     49 H5          11.3130   -41.0080    14.3680 hc         1 68J       0.033033
     50 H6          13.0250   -41.4300    14.4120 hc         1 68J       0.033033
     51 H7          11.7270   -37.8920    14.6070 hc         1 68J       0.033033
     52 H8          11.8100   -37.5810    12.8740 hc         1 68J       0.033033
     53 H9          10.6000   -38.6900    13.5200 hc         1 68J       0.033033
     54 H10         13.3720   -40.8440    11.9480 hc         1 68J       0.050200
     55 H11         12.9120   -39.2700    11.3500 hc         1 68J       0.050200
     56 H12         10.4860   -39.8840    11.6280 h1         1 68J       0.053700
     57 H13         10.9620   -41.4740    12.1900 h1         1 68J       0.053700
     58 H14         11.1500   -40.3990     9.4750 hn         1 68J       0.315500
     59 H15         11.4310   -41.6950     7.7760 hc         1 68J       0.062200
     60 H16         11.5470   -43.4260     8.0420 hc         1 68J       0.062200
     61 H17         13.9320   -43.3620     8.3240 hc         1 68J       0.052700
     62 H18         13.5570   -42.4860     6.8640 hc         1 68J       0.052700
     63 H19         13.0160   -38.7910     6.6910 hn         1 68J       0.471500
     64 H20         12.8440   -40.4490     6.4290 hn         1 68J       0.471500
     65 H21         15.3440   -42.4140     9.8940 ha         1 68J       0.128000
     66 H22         16.9580   -41.4040    11.5060 ha         1 68J       0.124000
     67 H23         15.7170   -36.9120     9.8270 ha         1 68J       0.130000
     68 H24         17.3570   -37.1440    11.6420 ha         1 68J       0.119000
     69 H25         17.0640   -38.2550    14.1430 ha         1 68J       0.119000
     70 H26         18.6560   -38.4060    16.0170 ha         1 68J       0.116000
     71 H27         20.7750   -39.6670    15.7400 ha         1 68J       0.117000
     72 H28         21.2960   -40.7250    13.5760 ha         1 68J       0.121000
     73 H29         20.0240   -42.7370     8.9540 hc         1 68J       0.070200
     74 H30         21.5390   -41.8560     8.9420 hc         1 68J       0.070200
     75 H31         20.3930   -38.9440     8.7530 hc         1 68J       0.083200
     76 H32         20.2860   -38.9150     6.9360 hc         1 68J       0.083200
     77 H33         18.0550   -40.0960     7.0570 hc         1 68J       0.083200
     78 H34         18.1690   -40.1120     8.8740 hc         1 68J       0.083200
     79 H35         19.4790   -42.1740     6.2390 hn         1 68J       0.316500
     80 H36         23.6010   -42.5950     4.8880 ha         1 68J       0.128500
     81 H37         23.8410   -43.8060     2.7510 ha         1 68J       0.136000
     82 H38         19.6570   -43.2940     1.9910 ha         1 68J       0.136000
     83 H39         19.4070   -42.0970     4.1140 ha         1 68J       0.128500
@<TRIPOS>BOND
     1     1     2 1   
     2     1    45 1   
     3     1    46 1   
     4     1    47 1   
     5     2     3 1   
     6     2     4 1   
     7     2     5 1   
     8     3    48 1   
     9     3    49 1   
    10     3    50 1   
    11     4    51 1   
    12     4    52 1   
    13     4    53 1   
    14     5     6 1   
    15     5    54 1   
    16     5    55 1   
    17     6     7 1   
    18     6    56 1   
    19     6    57 1   
    20     7     8 1   
    21     7    58 1   
    22     8     9 2   
    23     8    10 1   
    24    10    11 1   
    25    10    59 1   
    26    10    60 1   
    27    11    12 1   
    28    11    61 1   
    29    11    62 1   
    30    12    13 ar  
    31    12    16 ar  
    32    13    14 ar  
    33    13    15 1   
    34    14    19 ar  
    35    15    63 1   
    36    15    64 1   
    37    16    17 ar  
    38    16    65 1   
    39    17    18 ar  
    40    17    19 ar  
    41    18    22 ar  
    42    18    66 1   
    43    19    20 ar  
    44    20    21 ar  
    45    20    67 1   
    46    21    22 ar  
    47    21    68 1   
    48    22    23 1   
    49    23    24 ar  
    50    23    28 ar  
    51    24    25 ar  
    52    24    69 1   
    53    25    26 ar  
    54    25    70 1   
    55    26    27 ar  
    56    26    71 1   
    57    27    28 ar  
    58    27    72 1   
    59    28    29 1   
    60    29    30 3   
    61    30    31 1   
    62    31    32 1   
    63    31    73 1   
    64    31    74 1   
    65    32    33 1   
    66    32    34 1   
    67    32    35 1   
    68    33    34 1   
    69    33    75 1   
    70    33    76 1   
    71    34    77 1   
    72    34    78 1   
    73    35    36 1   
    74    35    79 1   
    75    36    37 2   
    76    36    38 1   
    77    38    39 ar  
    78    38    44 ar  
    79    39    40 ar  
    80    39    80 1   
    81    40    41 ar  
    82    40    81 1   
    83    41    42 1   
    84    41    43 ar  
    85    43    44 ar  
    86    43    82 1   
    87    44    83 1   
@<TRIPOS>SUBSTRUCTURE
     1 68J         1 TEMP              0 ****  ****    0 ROOT
