@<TRIPOS>MOLECULE
68K
   86    90     1     0     0
SMALL
No Charge or Current Charge


@<TRIPOS>ATOM
      1 C16         -8.7080    -2.7220    -3.3140 c3         1 68K      -0.085767
      2 C15         -8.3970    -3.2510    -1.8880 c3         1 68K      -0.041000
      3 C17         -9.6090    -2.9710    -0.9580 c3         1 68K      -0.085767
      4 C18         -8.1760    -4.7850    -1.9660 c3         1 68K      -0.085767
      5 C14         -7.0990    -2.5930    -1.3210 c3         1 68K      -0.087400
      6 C13         -7.1250    -1.0530    -1.1670 c3         1 68K       0.104000
      7 N2          -5.8590    -0.5340    -0.6430 ns         1 68K      -0.510900
      8 C12         -5.4900    -0.5530     0.6830 c          1 68K       0.595100
      9 O1          -6.2120    -1.0050     1.5600 o          1 68K      -0.613100
     10 C11         -4.0950     0.0060     0.9760 c3         1 68K      -0.162400
     11 C10         -4.1740     1.3860     1.6670 c3         1 68K      -0.011100
     12 C8          -2.7870     1.9650     1.9450 ca         1 68K      -0.176300
     13 C7          -2.0520     1.6660     3.1090 ca         1 68K       0.617900
     14 N1          -0.8470     2.1380     3.3990 nb         1 68K      -0.760000
     15 N3          -2.4690     0.8700     4.0990 nv         1 68K      -1.062900
     16 C9          -2.1880     2.8280     1.0130 ca         1 68K      -0.032000
     17 C5          -0.9080     3.3370     1.2960 ca         1 68K      -0.128000
     18 C6          -0.2750     4.2000     0.3820 ca         1 68K      -0.067000
     19 C4          -0.2640     2.9690     2.5050 ca         1 68K       0.324000
     20 C3           1.0160     3.4880     2.7670 ca         1 68K      -0.106000
     21 C2           1.6490     4.3460     1.8510 ca         1 68K      -0.078000
     22 C1           1.0180     4.7070     0.6400 cp         1 68K      -0.055000
     23 C19          1.6930     5.5970    -0.3470 cp         1 68K      -0.036000
     24 C24          1.1990     6.9070    -0.5500 ca         1 68K      -0.099000
     25 C23          1.8020     7.7740    -1.4740 ca         1 68K      -0.113000
     26 C22          2.9100     7.3400    -2.2180 ca         1 68K      -0.106000
     27 C21          3.4090     6.0400    -2.0400 ca         1 68K      -0.108000
     28 C20          2.8130     5.1600    -1.1130 ca         1 68K      -0.064300
     29 C25          3.3710     3.7430    -0.9840 c3         1 68K      -0.029100
     30 C26          2.5050     2.7020    -1.7280 c3         1 68K      -0.119700
     31 C27          2.8440     1.2760    -1.3290 ca         1 68K       0.332300
     32 C28          2.2760     0.6990    -0.1790 ca         1 68K      -0.135000
     33 C29          2.6110    -0.6190     0.1720 ca         1 68K      -0.078000
     34 N4           3.7120     0.6110    -2.1230 nb         1 68K      -0.656000
     35 C31          4.0340    -0.6580    -1.7840 ca         1 68K       0.299900
     36 C30          3.5170    -1.3240    -0.6510 ca         1 68K      -0.088000
     37 N5           3.9380    -2.6650    -0.4060 ns         1 68K      -0.143000
     38 C32          3.6290    -3.5790     0.5970 c          1 68K       0.621700
     39 O2           2.8610    -3.3250     1.5190 o          1 68K      -0.575100
     40 C33          4.3050    -4.9350     0.4930 ca         1 68K      -0.175600
     41 C34          5.1980    -5.2570    -0.5620 ca         1 68K      -0.044000
     42 C35          5.8030    -6.5250    -0.6210 ca         1 68K      -0.162500
     43 C36          5.5270    -7.4830     0.3620 ca         1 68K       0.197000
     44 F1           6.1110    -8.7000     0.3000 f          1 68K      -0.171000
     45 C37          4.6480    -7.1840     1.4100 ca         1 68K      -0.162500
     46 C38          4.0400    -5.9180     1.4770 ca         1 68K      -0.044000
     47 H1          -7.8490    -2.8660    -3.9820 hc         1 68K       0.035033
     48 H2          -9.5650    -3.2500    -3.7480 hc         1 68K       0.035033
     49 H3          -8.9530    -1.6530    -3.3020 hc         1 68K       0.035033
     50 H4         -10.5000    -3.5080    -1.3060 hc         1 68K       0.035033
     51 H5          -9.3990    -3.2970     0.0680 hc         1 68K       0.035033
     52 H6          -9.8580    -1.9040    -0.9330 hc         1 68K       0.035033
     53 H7          -7.3320    -5.0280    -2.6240 hc         1 68K       0.035033
     54 H8          -7.9640    -5.2030    -0.9750 hc         1 68K       0.035033
     55 H9          -9.0660    -5.2920    -2.3610 hc         1 68K       0.035033
     56 H10         -6.8790    -3.0350    -0.3410 hc         1 68K       0.042200
     57 H11         -6.2540    -2.8570    -1.9700 hc         1 68K       0.042200
     58 H12         -7.3070    -0.5830    -2.1410 h1         1 68K       0.053200
     59 H13         -7.9350    -0.7530    -0.4890 h1         1 68K       0.053200
     60 H14         -5.1900    -0.1440    -1.2970 hn         1 68K       0.312500
     61 H15         -3.5730    -0.6880     1.6430 hc         1 68K       0.065200
     62 H16         -3.5300     0.1170     0.0430 hc         1 68K       0.065200
     63 H17         -4.7430     2.0710     1.0260 hc         1 68K       0.060200
     64 H18         -4.7530     1.3000     2.5940 hc         1 68K       0.060200
     65 H19         -3.4660     0.7310     4.1980 hn         1 68K       0.476500
     66 H20         -1.9300     0.9410     4.9530 hn         1 68K       0.476500
     67 H21         -2.7010     3.0930     0.0910 ha         1 68K       0.117000
     68 H22         -0.7750     4.4730    -0.5450 ha         1 68K       0.116000
     69 H23          1.5220     3.2200     3.6890 ha         1 68K       0.130000
     70 H24          2.6400     4.7330     2.0770 ha         1 68K       0.119000
     71 H25          0.3400     7.2500     0.0230 ha         1 68K       0.116000
     72 H26          1.4110     8.7790    -1.6140 ha         1 68K       0.114000
     73 H27          3.3780     8.0090    -2.9370 ha         1 68K       0.113000
     74 H28          4.2610     5.7120    -2.6330 ha         1 68K       0.115000
     75 H29          4.3950     3.6930    -1.3740 hc         1 68K       0.056700
     76 H30          3.4510     3.4620     0.0720 hc         1 68K       0.056700
     77 H31          1.4460     2.8880    -1.5140 hc         1 68K       0.058700
     78 H32          2.6220     2.8440    -2.8090 hc         1 68K       0.058700
     79 H33          1.5840     1.2720     0.4330 ha         1 68K       0.130000
     80 H34          2.1690    -1.0570     1.0620 ha         1 68K       0.143000
     81 H35          4.7360    -1.1630    -2.4470 h4         1 68K       0.013100
     82 H36          4.5870    -3.0180    -1.0970 hn         1 68K       0.156000
     83 H37          5.4370    -4.5400    -1.3440 ha         1 68K       0.130000
     84 H38          6.4860    -6.7660    -1.4320 ha         1 68K       0.138500
     85 H39          4.4390    -7.9320     2.1710 ha         1 68K       0.138500
     86 H40          3.3590    -5.7060     2.3000 ha         1 68K       0.130000
@<TRIPOS>BOND
     1     1     2 1   
     2     1    47 1   
     3     1    48 1   
     4     1    49 1   
     5     2     3 1   
     6     2     4 1   
     7     2     5 1   
     8     3    50 1   
     9     3    51 1   
    10     3    52 1   
    11     4    53 1   
    12     4    54 1   
    13     4    55 1   
    14     5     6 1   
    15     5    56 1   
    16     5    57 1   
    17     6     7 1   
    18     6    58 1   
    19     6    59 1   
    20     7     8 1   
    21     7    60 1   
    22     8     9 2   
    23     8    10 1   
    24    10    11 1   
    25    10    61 1   
    26    10    62 1   
    27    11    12 1   
    28    11    63 1   
    29    11    64 1   
    30    12    13 ar  
    31    12    16 ar  
    32    13    14 ar  
    33    13    15 1   
    34    14    19 ar  
    35    15    65 1   
    36    15    66 1   
    37    16    17 ar  
    38    16    67 1   
    39    17    18 ar  
    40    17    19 ar  
    41    18    22 ar  
    42    18    68 1   
    43    19    20 ar  
    44    20    21 ar  
    45    20    69 1   
    46    21    22 ar  
    47    21    70 1   
    48    22    23 1   
    49    23    24 ar  
    50    23    28 ar  
    51    24    25 ar  
    52    24    71 1   
    53    25    26 ar  
    54    25    72 1   
    55    26    27 ar  
    56    26    73 1   
    57    27    28 ar  
    58    27    74 1   
    59    28    29 1   
    60    29    30 1   
    61    29    75 1   
    62    29    76 1   
    63    30    31 1   
    64    30    77 1   
    65    30    78 1   
    66    31    32 ar  
    67    31    34 ar  
    68    32    33 ar  
    69    32    79 1   
    70    33    36 ar  
    71    33    80 1   
    72    34    35 ar  
    73    35    36 ar  
    74    35    81 1   
    75    36    37 1   
    76    37    38 1   
    77    37    82 1   
    78    38    39 2   
    79    38    40 1   
    80    40    41 ar  
    81    40    46 ar  
    82    41    42 ar  
    83    41    83 1   
    84    42    43 ar  
    85    42    84 1   
    86    43    44 1   
    87    43    45 ar  
    88    45    46 ar  
    89    45    85 1   
    90    46    86 1   
@<TRIPOS>SUBSTRUCTURE
     1 68K         1 TEMP              0 ****  ****    0 ROOT
