@<TRIPOS>MOLECULE
68K
   86    90     1     0     0
SMALL
bcc


@<TRIPOS>ATOM
      1 C16         -8.9430    -3.0500    -2.6920 c3         1 68K      -0.085767
      2 C15         -8.4010    -3.6670    -1.4010 c3         1 68K      -0.041000
      3 C17         -9.4950    -3.6630    -0.3310 c3         1 68K      -0.085767
      4 C18         -7.9940    -5.1140    -1.6840 c3         1 68K      -0.085767
      5 C14         -7.1510    -2.9170    -0.9100 c3         1 68K      -0.087400
      6 C13         -7.3700    -1.4580    -0.5390 c3         1 68K       0.104000
      7 N2          -6.1190    -0.8530    -0.1260 ns         1 68K      -0.577900
      8 C12         -6.0520     0.3280     0.5050 c          1 68K       0.662100
      9 O1          -7.0480     0.9860     0.7790 o          1 68K      -0.613100
     10 C11         -4.6520     0.7740     0.8790 c3         1 68K      -0.162400
     11 C10         -4.5710     2.2690     1.1830 c3         1 68K      -0.011100
     12 C8          -3.1850     2.6890     1.5790 ca         1 68K      -0.241600
     13 C7          -2.6410     2.3690     2.8730 ca         1 68K       0.683200
     14 N1          -1.4200     2.6840     3.2360 nb         1 68K      -0.760000
     15 N3          -3.3960     1.6720     3.7650 nv         1 68K      -0.952500
     16 C9          -2.3770     3.3680     0.7200 ca         1 68K      -0.050000
     17 C5          -1.0570     3.7320     1.0840 ca         1 68K      -0.193300
     18 C6          -0.1940     4.4420     0.2300 ca         1 68K      -0.085000
     19 C4          -0.6220     3.3480     2.3710 ca         1 68K       0.454600
     20 C3           0.6900     3.6930     2.7630 ca         1 68K      -0.189300
     21 C2           1.5130     4.3830     1.9110 ca         1 68K      -0.096000
     22 C1           1.0830     4.7700     0.6220 cp         1 68K      -0.055000
     23 C19          1.9740     5.5460    -0.2750 cp         1 68K      -0.036000
     24 C24          1.6150     6.8510    -0.6110 ca         1 68K      -0.117000
     25 C23          2.4110     7.6230    -1.4460 ca         1 68K      -0.131000
     26 C22          3.5860     7.0890    -1.9540 ca         1 68K      -0.124000
     27 C21          3.9460     5.7890    -1.6300 ca         1 68K      -0.126000
     28 C20          3.1570     5.0010    -0.7960 ca         1 68K      -0.064300
     29 C25          3.5420     3.5660    -0.5560 c3         1 68K      -0.029100
     30 C26          2.7620     2.6160    -1.4770 c3         1 68K      -0.119700
     31 C27          3.1120     1.1820    -1.2160 ca         1 68K       0.397600
     32 C28          2.2330     0.3240    -0.5640 ca         1 68K      -0.218300
     33 C29          2.5980    -0.9890    -0.3170 ca         1 68K      -0.096000
     34 N4           4.3170     0.7670    -1.6030 nb         1 68K      -0.656000
     35 C31          4.6680    -0.4870    -1.3770 ca         1 68K       0.365200
     36 C30          3.8510    -1.4190    -0.7400 ca         1 68K      -0.060700
     37 N5           4.3480    -2.7090    -0.5330 ns         1 68K      -0.469100
     38 C32          3.6220    -3.8570    -0.5780 c          1 68K       0.688700
     39 O2           2.4250    -3.8810    -0.7990 o          1 68K      -0.575100
     40 C33          4.4000    -5.1070    -0.3460 ca         1 68K      -0.175600
     41 C34          5.5570    -5.1400     0.4290 ca         1 68K      -0.062000
     42 C35          6.2350    -6.3300     0.6410 ca         1 68K      -0.180500
     43 C36          5.7400    -7.4830     0.0620 ca         1 68K       0.161900
     44 F1           6.3930    -8.6350     0.2570 f          1 68K      -0.135900
     45 C37          4.5920    -7.4880    -0.7080 ca         1 68K      -0.180500
     46 C38          3.9190    -6.2930    -0.8990 ca         1 68K      -0.062000
     47 H1          -8.1800    -3.0310    -3.4730 hc         1 68K       0.035033
     48 H2          -9.7870    -3.6330    -3.0650 hc         1 68K       0.035033
     49 H3          -9.2960    -2.0270    -2.5480 hc         1 68K       0.035033
     50 H4         -10.3470    -4.2650    -0.6520 hc         1 68K       0.035033
     51 H5          -9.1310    -4.0790     0.6110 hc         1 68K       0.035033
     52 H6          -9.8710    -2.6590    -0.1260 hc         1 68K       0.035033
     53 H7          -7.2090    -5.1650    -2.4420 hc         1 68K       0.035033
     54 H8          -7.6180    -5.6050    -0.7830 hc         1 68K       0.035033
     55 H9          -8.8440    -5.6950    -2.0470 hc         1 68K       0.035033
     56 H10         -6.7480    -3.4420    -0.0370 hc         1 68K       0.042200
     57 H11         -6.3840    -2.9750    -1.6920 hc         1 68K       0.042200
     58 H12         -7.7890    -0.9020    -1.3840 h1         1 68K       0.053200
     59 H13         -8.0860    -1.3770     0.2800 h1         1 68K       0.053200
     60 H14         -5.2610    -1.3250    -0.3630 hn         1 68K       0.312500
     61 H15         -4.3320     0.1890     1.7460 hc         1 68K       0.065200
     62 H16         -3.9540     0.5210     0.0770 hc         1 68K       0.065200
     63 H17         -4.8680     2.8350     0.2990 hc         1 68K       0.060200
     64 H18         -5.2940     2.5340     1.9590 hc         1 68K       0.060200
     65 H19         -4.3990     1.7050     3.6910 hn         1 68K       0.421300
     66 H20         -3.0560     1.6520     4.7130 hn         1 68K       0.421300
     67 H21         -2.7470     3.6380    -0.2630 ha         1 68K       0.135000
     68 H22         -0.5480     4.7250    -0.7550 ha         1 68K       0.134000
     69 H23          1.0300     3.4110     3.7510 ha         1 68K       0.148000
     70 H24          2.5100     4.6540     2.2380 ha         1 68K       0.137000
     71 H25          0.7030     7.2680    -0.2020 ha         1 68K       0.134000
     72 H26          2.1170     8.6350    -1.6910 ha         1 68K       0.132000
     73 H27          4.2180     7.6790    -2.6040 ha         1 68K       0.131000
     74 H28          4.8580     5.3710    -2.0380 ha         1 68K       0.133000
     75 H29          4.6100     3.4390    -0.7400 hc         1 68K       0.056700
     76 H30          3.3680     3.2760     0.4820 hc         1 68K       0.056700
     77 H31          1.6900     2.7640    -1.3340 hc         1 68K       0.058700
     78 H32          2.9850     2.8650    -2.5180 hc         1 68K       0.058700
     79 H33          1.2640     0.6810    -0.2410 ha         1 68K       0.148000
     80 H34          1.9190    -1.6460     0.2060 ha         1 68K       0.161000
     81 H35          5.6570    -0.7850    -1.7170 h4         1 68K       0.013100
     82 H36          5.3530    -2.7950    -0.5530 hn         1 68K       0.322500
     83 H37          5.9360    -4.2460     0.9070 ha         1 68K       0.148000
     84 H38          7.1270    -6.3600     1.2520 ha         1 68K       0.156500
     85 H39          4.2290    -8.4070    -1.1480 ha         1 68K       0.156500
     86 H40          3.0170    -6.2840    -1.4950 ha         1 68K       0.148000
@<TRIPOS>BOND
     1     1     2 1   
     2     1    47 1   
     3     1    48 1   
     4     1    49 1   
     5     2     3 1   
     6     2     4 1   
     7     2     5 1   
     8     3    50 1   
     9     3    51 1   
    10     3    52 1   
    11     4    53 1   
    12     4    54 1   
    13     4    55 1   
    14     5     6 1   
    15     5    56 1   
    16     5    57 1   
    17     6     7 1   
    18     6    58 1   
    19     6    59 1   
    20     7     8 1   
    21     7    60 1   
    22     8     9 2   
    23     8    10 1   
    24    10    11 1   
    25    10    61 1   
    26    10    62 1   
    27    11    12 1   
    28    11    63 1   
    29    11    64 1   
    30    12    13 ar  
    31    12    16 ar  
    32    13    14 ar  
    33    13    15 1   
    34    14    19 ar  
    35    15    65 1   
    36    15    66 1   
    37    16    17 ar  
    38    16    67 1   
    39    17    18 ar  
    40    17    19 ar  
    41    18    22 ar  
    42    18    68 1   
    43    19    20 ar  
    44    20    21 ar  
    45    20    69 1   
    46    21    22 ar  
    47    21    70 1   
    48    22    23 1   
    49    23    24 ar  
    50    23    28 ar  
    51    24    25 ar  
    52    24    71 1   
    53    25    26 ar  
    54    25    72 1   
    55    26    27 ar  
    56    26    73 1   
    57    27    28 ar  
    58    27    74 1   
    59    28    29 1   
    60    29    30 1   
    61    29    75 1   
    62    29    76 1   
    63    30    31 1   
    64    30    77 1   
    65    30    78 1   
    66    31    32 ar  
    67    31    34 ar  
    68    32    33 ar  
    69    32    79 1   
    70    33    36 ar  
    71    33    80 1   
    72    34    35 ar  
    73    35    36 ar  
    74    35    81 1   
    75    36    37 1   
    76    37    38 1   
    77    37    82 1   
    78    38    39 2   
    79    38    40 1   
    80    40    41 ar  
    81    40    46 ar  
    82    41    42 ar  
    83    41    83 1   
    84    42    43 ar  
    85    42    84 1   
    86    43    44 1   
    87    43    45 ar  
    88    45    46 ar  
    89    45    85 1   
    90    46    86 1   
@<TRIPOS>SUBSTRUCTURE
     1 68K         1 TEMP              0 ****  ****    0 ROOT
