@<TRIPOS>MOLECULE
68M
   62    64     1     0     0
SMALL
bcc


@<TRIPOS>ATOM
      1 C18         -8.3830     2.0320    -0.4310 c3         1 68M      -0.085433
      2 C16         -8.2350     0.9460     0.6360 c3         1 68M      -0.041000
      3 C19         -8.7690     1.4840     1.9650 c3         1 68M      -0.085433
      4 C20         -9.0470    -0.2890     0.2390 c3         1 68M      -0.085433
      5 C15         -6.7530     0.5860     0.8390 c3         1 68M      -0.090400
      6 C14         -6.0520    -0.0190    -0.3730 c3         1 68M       0.097000
      7 N3          -4.6510    -0.2590    -0.0980 ns         1 68M      -0.575900
      8 C13         -3.6340     0.2680    -0.7960 c          1 68M       0.664100
      9 O1          -3.7850     0.9570    -1.7970 o          1 68M      -0.602100
     10 C12         -2.2490    -0.0230    -0.2430 c3         1 68M      -0.140700
     11 C17         -1.7060     1.2450     0.4150 c3         1 68M      -0.085100
     12 C11         -1.3330    -0.5180    -1.3770 c3         1 68M      -0.017100
     13 C4           0.0080    -0.9740    -0.8820 ca         1 68M      -0.246600
     14 C3           0.1840    -2.2650    -0.2650 ca         1 68M       0.698200
     15 N1           1.3300    -2.6740     0.2290 nb         1 68M      -0.769000
     16 N2          -0.8530    -3.1360    -0.2170 nv         1 68M      -0.968500
     17 C5           1.1070    -0.1770    -0.9700 ca         1 68M      -0.039000
     18 C1           2.3600    -0.5900    -0.4520 ca         1 68M      -0.202300
     19 C6           3.5140     0.2100    -0.5070 ca         1 68M      -0.048000
     20 C2           2.4090    -1.8660     0.1540 ca         1 68M       0.464600
     21 C9           3.6390    -2.2990     0.6950 ca         1 68M      -0.196300
     22 C8           4.7460    -1.4930     0.6470 ca         1 68M      -0.090000
     23 C7           4.7010    -0.2140     0.0490 cp         1 68M      -0.169500
     24 C10          5.9020     0.6500    -0.0270 cp         1 68M       0.473800
     25 N4           6.1370     1.1970    -1.2200 nb         1 68M      -0.669000
     26 C24          7.1900     1.9840    -1.3790 ca         1 68M       0.402200
     27 C23          8.0760     2.2720    -0.3530 ca         1 68M      -0.246300
     28 C22          7.8170     1.7280     0.8930 ca         1 68M      -0.098000
     29 C21          6.7130     0.9050     1.0910 ca         1 68M      -0.176600
     30 C25          6.4190     0.3790     2.4660 c3         1 68M      -0.043800
     31 H1          -9.4280     2.3300    -0.5380 hc         1 68M       0.034589
     32 H2          -7.8120     2.9240    -0.1610 hc         1 68M       0.034589
     33 H3          -8.0400     1.7010    -1.4120 hc         1 68M       0.034589
     34 H4          -8.6970     0.7340     2.7550 hc         1 68M       0.034589
     35 H5          -8.2080     2.3640     2.2880 hc         1 68M       0.034589
     36 H6          -9.8190     1.7740     1.8780 hc         1 68M       0.034589
     37 H7          -8.7490    -0.6860    -0.7330 hc         1 68M       0.034589
     38 H8          -8.9330    -1.0890     0.9750 hc         1 68M       0.034589
     39 H9         -10.1100    -0.0470     0.1780 hc         1 68M       0.034589
     40 H10         -6.2090     1.4880     1.1390 hc         1 68M       0.041200
     41 H11         -6.6750    -0.1150     1.6770 hc         1 68M       0.041200
     42 H12         -6.5280    -0.9580    -0.6650 h1         1 68M       0.060200
     43 H13         -6.1070     0.6500    -1.2290 h1         1 68M       0.060200
     44 H14         -4.4320    -0.8110     0.7160 hn         1 68M       0.305500
     45 H15         -2.3230    -0.7960     0.5290 hc         1 68M       0.041700
     46 H16         -1.6160     2.0540    -0.3110 hc         1 68M       0.045033
     47 H17         -2.3600     1.5810     1.2200 hc         1 68M       0.045033
     48 H18         -0.7210     1.0680     0.8460 hc         1 68M       0.045033
     49 H19         -1.8270    -1.3250    -1.9270 hc         1 68M       0.064700
     50 H20         -1.1920     0.2910    -2.0960 hc         1 68M       0.064700
     51 H21         -0.7470    -3.9530     0.3610 hn         1 68M       0.426800
     52 H22         -1.7980    -2.8280    -0.3590 hn         1 68M       0.426800
     53 H23          1.0260     0.7970    -1.4400 ha         1 68M       0.138000
     54 H24          3.4570     1.1820    -0.9840 ha         1 68M       0.143000
     55 H25          3.6930    -3.2830     1.1450 ha         1 68M       0.147000
     56 H26          5.6780    -1.8590     1.0570 ha         1 68M       0.133000
     57 H27          7.3360     2.4040    -2.3680 h4         1 68M       0.019100
     58 H28          8.9300     2.9130    -0.5220 ha         1 68M       0.142000
     59 H29          8.4670     1.9580     1.7300 ha         1 68M       0.134000
     60 H30          6.8140    -0.6270     2.6130 hc         1 68M       0.046033
     61 H31          6.8770     1.0170     3.2200 hc         1 68M       0.046033
     62 H32          5.3490     0.3370     2.6660 hc         1 68M       0.046033
@<TRIPOS>BOND
     1     1     2 1   
     2     1    31 1   
     3     1    32 1   
     4     1    33 1   
     5     2     3 1   
     6     2     4 1   
     7     2     5 1   
     8     3    34 1   
     9     3    35 1   
    10     3    36 1   
    11     4    37 1   
    12     4    38 1   
    13     4    39 1   
    14     5     6 1   
    15     5    40 1   
    16     5    41 1   
    17     6     7 1   
    18     6    42 1   
    19     6    43 1   
    20     7     8 1   
    21     7    44 1   
    22     8     9 2   
    23     8    10 1   
    24    10    11 1   
    25    10    12 1   
    26    10    45 1   
    27    11    46 1   
    28    11    47 1   
    29    11    48 1   
    30    12    13 1   
    31    12    49 1   
    32    12    50 1   
    33    13    14 ar  
    34    13    17 ar  
    35    14    15 ar  
    36    14    16 1   
    37    15    20 ar  
    38    16    51 1   
    39    16    52 1   
    40    17    18 ar  
    41    17    53 1   
    42    18    19 ar  
    43    18    20 ar  
    44    19    23 ar  
    45    19    54 1   
    46    20    21 ar  
    47    21    22 ar  
    48    21    55 1   
    49    22    23 ar  
    50    22    56 1   
    51    23    24 1   
    52    24    25 ar  
    53    24    29 ar  
    54    25    26 ar  
    55    26    27 ar  
    56    26    57 1   
    57    27    28 ar  
    58    27    58 1   
    59    28    29 ar  
    60    28    59 1   
    61    29    30 1   
    62    30    60 1   
    63    30    61 1   
    64    30    62 1   
@<TRIPOS>SUBSTRUCTURE
     1 68M         1 TEMP              0 ****  ****    0 ROOT
