@<TRIPOS>MOLECULE
68M
   62    64     1     0     0
SMALL
No Charge or Current Charge


@<TRIPOS>ATOM
      1 C18         -8.5890     1.5450    -0.9740 c3         1 68M      -0.085433
      2 C16         -8.2950     1.0700     0.4740 c3         1 68M      -0.041000
      3 C19         -8.7200     2.1910     1.4600 c3         1 68M      -0.085433
      4 C20         -9.1320    -0.2020     0.7800 c3         1 68M      -0.085433
      5 C15         -6.7700     0.7920     0.6690 c3         1 68M      -0.090400
      6 C14         -6.1560    -0.3050    -0.2340 c3         1 68M       0.097000
      7 N3          -4.7280    -0.4950     0.0350 ns         1 68M      -0.508900
      8 C13         -3.7230     0.3210    -0.4400 c          1 68M       0.597100
      9 O1          -3.9490     1.2730    -1.1740 o          1 68M      -0.602100
     10 C12         -2.3000    -0.0620     0.0170 c3         1 68M      -0.140700
     11 C17         -1.6890     1.0600     0.8930 c3         1 68M      -0.085100
     12 C11         -1.4140    -0.4280    -1.2060 c3         1 68M      -0.017100
     13 C4          -0.0220    -0.9340    -0.8210 ca         1 68M      -0.181300
     14 C3           0.2370    -2.2760    -0.4830 ca         1 68M       0.632900
     15 N1           1.4180    -2.7700    -0.1410 nb         1 68M      -0.769000
     16 N2          -0.6740    -3.2510    -0.4460 nv         1 68M      -1.078900
     17 C5           1.0700    -0.0500    -0.8040 ca         1 68M      -0.021000
     18 C1           2.3340    -0.5500    -0.4450 ca         1 68M      -0.137000
     19 C6           3.4490     0.3090    -0.4120 ca         1 68M      -0.030000
     20 C2           2.4710    -1.9220    -0.1170 ca         1 68M       0.334000
     21 C9           3.7440    -2.4000     0.2350 ca         1 68M      -0.113000
     22 C8           4.8580    -1.5440     0.2700 ca         1 68M      -0.072000
     23 C7           4.7310    -0.1680    -0.0420 cp         1 68M      -0.169500
     24 C10          5.9120     0.7550    -0.0160 cp         1 68M       0.408500
     25 N4           6.0550     1.5300    -1.1170 nb         1 68M      -0.669000
     26 C24          7.1040     2.3770    -1.1910 ca         1 68M       0.336900
     27 C23          8.0500     2.5030    -0.1640 ca         1 68M      -0.163000
     28 C22          7.9060     1.7290     0.9970 ca         1 68M      -0.080000
     29 C21          6.8180     0.8400     1.0860 ca         1 68M      -0.111300
     30 C25          6.6410     0.0380     2.3730 c3         1 68M      -0.043800
     31 H1          -9.6430     1.8280    -1.0860 hc         1 68M       0.034589
     32 H2          -7.9760     2.4180    -1.2320 hc         1 68M       0.034589
     33 H3          -8.3820     0.7560    -1.7060 hc         1 68M       0.034589
     34 H4          -8.5370     1.8910     2.4990 hc         1 68M       0.034589
     35 H5          -8.1570     3.1140     1.2710 hc         1 68M       0.034589
     36 H6          -9.7870     2.4210     1.3590 hc         1 68M       0.034589
     37 H7          -8.9280    -1.0000     0.0570 hc         1 68M       0.034589
     38 H8          -8.9100    -0.5860     1.7830 hc         1 68M       0.034589
     39 H9         -10.2060     0.0180     0.7330 hc         1 68M       0.034589
     40 H10         -6.2190     1.7260     0.5030 hc         1 68M       0.041200
     41 H11         -6.5910     0.5140     1.7150 hc         1 68M       0.041200
     42 H12         -6.6650    -1.2620    -0.0600 h1         1 68M       0.060200
     43 H13         -6.2820    -0.0410    -1.2920 h1         1 68M       0.060200
     44 H14         -4.4480    -1.2580     0.6400 hn         1 68M       0.305500
     45 H15         -2.3780    -0.9550     0.6500 hc         1 68M       0.041700
     46 H16         -1.5250     1.9710     0.3060 hc         1 68M       0.045033
     47 H17         -2.3610     1.3060     1.7250 hc         1 68M       0.045033
     48 H18         -0.7290     0.7480     1.3220 hc         1 68M       0.045033
     49 H19         -1.9330    -1.1810    -1.8120 hc         1 68M       0.064700
     50 H20         -1.3240     0.4530    -1.8560 hc         1 68M       0.064700
     51 H21         -0.3580    -4.0830     0.0340 hn         1 68M       0.482000
     52 H22         -1.6370    -2.9810    -0.2940 hn         1 68M       0.482000
     53 H23          0.9380     1.0000    -1.0590 ha         1 68M       0.120000
     54 H24          3.3240     1.3600    -0.6660 ha         1 68M       0.125000
     55 H25          3.8690    -3.4510     0.4800 ha         1 68M       0.129000
     56 H26          5.8310    -1.9560     0.5270 ha         1 68M       0.115000
     57 H27          7.1850     2.9740    -2.0990 h4         1 68M       0.019100
     58 H28          8.8770     3.2000    -0.2690 ha         1 68M       0.124000
     59 H29          8.6220     1.8230     1.8110 ha         1 68M       0.116000
     60 H30          7.1140    -0.9480     2.2920 hc         1 68M       0.046033
     61 H31          7.0960     0.5510     3.2290 hc         1 68M       0.046033
     62 H32          5.5820    -0.1090     2.6170 hc         1 68M       0.046033
@<TRIPOS>BOND
     1     1     2 1   
     2     1    31 1   
     3     1    32 1   
     4     1    33 1   
     5     2     3 1   
     6     2     4 1   
     7     2     5 1   
     8     3    34 1   
     9     3    35 1   
    10     3    36 1   
    11     4    37 1   
    12     4    38 1   
    13     4    39 1   
    14     5     6 1   
    15     5    40 1   
    16     5    41 1   
    17     6     7 1   
    18     6    42 1   
    19     6    43 1   
    20     7     8 1   
    21     7    44 1   
    22     8     9 2   
    23     8    10 1   
    24    10    11 1   
    25    10    12 1   
    26    10    45 1   
    27    11    46 1   
    28    11    47 1   
    29    11    48 1   
    30    12    13 1   
    31    12    49 1   
    32    12    50 1   
    33    13    14 ar  
    34    13    17 ar  
    35    14    15 ar  
    36    14    16 1   
    37    15    20 ar  
    38    16    51 1   
    39    16    52 1   
    40    17    18 ar  
    41    17    53 1   
    42    18    19 ar  
    43    18    20 ar  
    44    19    23 ar  
    45    19    54 1   
    46    20    21 ar  
    47    21    22 ar  
    48    21    55 1   
    49    22    23 ar  
    50    22    56 1   
    51    23    24 1   
    52    24    25 ar  
    53    24    29 ar  
    54    25    26 ar  
    55    26    27 ar  
    56    26    57 1   
    57    27    28 ar  
    58    27    58 1   
    59    28    29 ar  
    60    28    59 1   
    61    29    30 1   
    62    30    60 1   
    63    30    61 1   
    64    30    62 1   
@<TRIPOS>SUBSTRUCTURE
     1 68M         1 TEMP              0 ****  ****    0 ROOT
