@<TRIPOS>MOLECULE
68N
   25    26     1     0     0
SMALL
No Charge or Current Charge


@<TRIPOS>ATOM
      1 CAD          2.5680     0.5920     0.2190 ca         1 68N      -0.113000
      2 CAB          3.1300    -0.6910     0.1400 ca         1 68N      -0.106000
      3 CAC          2.3040    -1.8020    -0.0860 ca         1 68N      -0.114000
      4 CAE          0.9170    -1.6320    -0.2240 ca         1 68N      -0.110000
      5 CAK          0.3320    -0.3480    -0.1290 ca         1 68N      -0.079300
      6 CAJ          1.1790     0.7730     0.0770 ca         1 68N      -0.056300
      7 CAH          0.6010     2.1900     0.1740 c6         1 68N      -0.032100
      8 CAG         -0.8610     2.2850    -0.3100 c6         1 68N       0.166800
      9 NAI         -1.6470     1.1620     0.2300 n7         1 68N      -0.871400
     10 CAL         -1.1960    -0.1490    -0.3100 c6         1 68N       0.226800
     11 CAF         -2.0710    -1.2980     0.3130 c3         1 68N       0.165600
     12 OAA         -3.4890    -1.0630     0.1720 oh         1 68N      -0.670000
     13 H1           3.2140     1.4500     0.3890 ha         1 68N       0.110000
     14 H2           4.2050    -0.8230     0.2470 ha         1 68N       0.112000
     15 H3           2.7400    -2.7960    -0.1580 ha         1 68N       0.112000
     16 H4           0.3070    -2.5110    -0.4160 ha         1 68N       0.109000
     17 H5           0.6530     2.5200     1.2200 hc         1 68N       0.055200
     18 H6           1.2200     2.8930    -0.4000 hc         1 68N       0.055200
     19 H7          -1.2970     3.2410     0.0170 h1         1 68N       0.032700
     20 H8          -0.8920     2.2610    -1.4100 h1         1 68N       0.032700
     21 H9          -2.6360     1.2680    -0.0280 hn         1 68N       0.432000
     22 H11         -1.3920    -0.1550    -1.3930 h1         1 68N       0.036700
     23 H12         -1.8140    -2.2460    -0.1760 h1         1 68N       0.029700
     24 H13         -1.8090    -1.3930     1.3750 h1         1 68N       0.029700
     25 H14         -3.9470    -1.7910     0.6480 ho         1 68N       0.446000
@<TRIPOS>BOND
     1     1     2 ar  
     2     1     6 ar  
     3     1    13 1   
     4     2     3 ar  
     5     2    14 1   
     6     3     4 ar  
     7     3    15 1   
     8     4     5 ar  
     9     4    16 1   
    10     5     6 ar  
    11     5    10 1   
    12     6     7 1   
    13     7     8 1   
    14     7    17 1   
    15     7    18 1   
    16     8     9 1   
    17     8    19 1   
    18     8    20 1   
    19     9    10 1   
    20     9    21 1   
    21    10    11 1   
    22    10    22 1   
    23    11    12 1   
    24    11    23 1   
    25    11    24 1   
    26    12    25 1   
@<TRIPOS>SUBSTRUCTURE
     1 68N         1 TEMP              0 ****  ****    0 ROOT
