@<TRIPOS>MOLECULE
68N
   25    26     1     0     0
SMALL
abcg2


@<TRIPOS>ATOM
      1 CAD          2.4830     0.5550     0.3050 ca         1 68N      -0.113000
      2 CAB          3.0560    -0.6930     0.1310 ca         1 68N      -0.106000
      3 CAC          2.2500    -1.7680    -0.2260 ca         1 68N      -0.114000
      4 CAE          0.8870    -1.5800    -0.3810 ca         1 68N      -0.110000
      5 CAK          0.2950    -0.3330    -0.1720 ca         1 68N      -0.079300
      6 CAJ          1.1110     0.7540     0.1510 ca         1 68N      -0.056300
      7 CAH          0.5320     2.1370     0.2860 c6         1 68N      -0.032100
      8 CAG         -0.8110     2.2170    -0.4130 c6         1 68N       0.166800
      9 NAI         -1.6380     1.1410     0.0920 n7         1 68N      -0.871400
     10 CAL         -1.2030    -0.1710    -0.3470 c6         1 68N       0.226800
     11 CAF         -1.9630    -1.2230     0.4530 c3         1 68N       0.165600
     12 OAA         -3.3400    -1.0580     0.1990 oh         1 68N      -0.670000
     13 H1           3.1120     1.4040     0.5520 ha         1 68N       0.110000
     14 H2           4.1230    -0.8250     0.2530 ha         1 68N       0.112000
     15 H3           2.6820    -2.7470    -0.3890 ha         1 68N       0.112000
     16 H4           0.2770    -2.4250    -0.6780 ha         1 68N       0.109000
     17 H5           0.4010     2.3880     1.3430 hc         1 68N       0.055200
     18 H6           1.2280     2.8710    -0.1270 hc         1 68N       0.055200
     19 H7          -1.2960     3.1680    -0.1910 h1         1 68N       0.032700
     20 H8          -0.6650     2.1750    -1.5040 h1         1 68N       0.032700
     21 H9          -2.6010     1.2790    -0.1790 hn         1 68N       0.432000
     22 H11         -1.4220    -0.3400    -1.4170 h1         1 68N       0.036700
     23 H12         -1.6310    -2.2270     0.1690 h1         1 68N       0.029700
     24 H13         -1.7230    -1.0870     1.5150 h1         1 68N       0.029700
     25 H14         -3.8260    -1.6740     0.7540 ho         1 68N       0.446000
@<TRIPOS>BOND
     1     1     2 ar  
     2     1     6 ar  
     3     1    13 1   
     4     2     3 ar  
     5     2    14 1   
     6     3     4 ar  
     7     3    15 1   
     8     4     5 ar  
     9     4    16 1   
    10     5     6 ar  
    11     5    10 1   
    12     6     7 1   
    13     7     8 1   
    14     7    17 1   
    15     7    18 1   
    16     8     9 1   
    17     8    19 1   
    18     8    20 1   
    19     9    10 1   
    20     9    21 1   
    21    10    11 1   
    22    10    22 1   
    23    11    12 1   
    24    11    23 1   
    25    11    24 1   
    26    12    25 1   
@<TRIPOS>SUBSTRUCTURE
     1 68N         1 TEMP              0 ****  ****    0 ROOT
