@<TRIPOS>MOLECULE
68O
   30    31     1     0     0
SMALL
bcc


@<TRIPOS>ATOM
      1 FAD         -1.6730     0.0350    -1.9440 f          1 68O      -0.127900
      2 CAO         -2.4670     0.2180    -0.8820 ca         1 68O       0.120900
      3 CAG         -3.5780     1.0280    -0.9830 ca         1 68O      -0.162000
      4 CAE         -4.3890     1.1970     0.1320 ca         1 68O      -0.104000
      5 CAF         -4.0790     0.5620     1.3260 ca         1 68O      -0.135000
      6 CAH         -2.9510    -0.2420     1.4160 ca         1 68O      -0.106000
      7 CAR         -2.1390    -0.4200     0.3080 ca         1 68O       0.053100
      8 OAL         -1.0660    -1.2600     0.3710 os         1 68O      -0.216200
      9 CAQ          0.1910    -0.7320     0.3360 ca         1 68O       0.124100
     10 CAJ          0.4720     0.6080     0.5340 ca         1 68O      -0.203000
     11 CAN          1.7910     1.0270     0.5000 ca         1 68O       0.130900
     12 FAC          2.0340     2.3400     0.6860 f          1 68O      -0.144900
     13 CAP          2.8520     0.1690     0.2930 ca         1 68O      -0.099300
     14 CAK          4.2750     0.6480     0.2220 c3         1 68O      -0.023100
     15 CAA          4.6560     1.1330    -1.1750 c3         1 68O      -0.087100
     16 CAI          2.5350    -1.1770     0.1030 ca         1 68O      -0.177000
     17 CAM          1.2300    -1.6420     0.1170 ca         1 68O       0.110100
     18 OAB          0.8930    -2.9350    -0.0610 oh         1 68O      -0.471100
     19 HAG         -3.8070     1.5130    -1.9230 ha         1 68O       0.153000
     20 HAE         -5.2660     1.8270     0.0610 ha         1 68O       0.139000
     21 HAF         -4.7120     0.6940     2.1930 ha         1 68O       0.141000
     22 HAH         -2.6970    -0.7420     2.3420 ha         1 68O       0.152000
     23 HAJ         -0.3120     1.3310     0.7190 ha         1 68O       0.162000
     24 HAL          4.4440     1.4470     0.9460 hc         1 68O       0.050200
     25 HAK          4.9360    -0.1700     0.5140 hc         1 68O       0.050200
     26 HAC          4.5350     0.3370    -1.9110 hc         1 68O       0.037367
     27 HAB          4.0360     1.9730    -1.4880 hc         1 68O       0.037367
     28 HAA          5.6960     1.4590    -1.2000 hc         1 68O       0.037367
     29 HAI          3.3420    -1.8830    -0.0580 ha         1 68O       0.136000
     30 HAM          1.6850    -3.4660    -0.2050 ho         1 68O       0.423000
@<TRIPOS>BOND
     1     1     2 1   
     2     2     3 ar  
     3     2     7 ar  
     4     3     4 ar  
     5     3    19 1   
     6     4     5 ar  
     7     4    20 1   
     8     5     6 ar  
     9     5    21 1   
    10     6     7 ar  
    11     6    22 1   
    12     7     8 1   
    13     8     9 1   
    14     9    10 ar  
    15     9    17 ar  
    16    10    11 ar  
    17    10    23 1   
    18    11    12 1   
    19    11    13 ar  
    20    13    14 1   
    21    13    16 ar  
    22    14    15 1   
    23    14    24 1   
    24    14    25 1   
    25    15    26 1   
    26    15    27 1   
    27    15    28 1   
    28    16    17 ar  
    29    16    29 1   
    30    17    18 1   
    31    18    30 1   
@<TRIPOS>SUBSTRUCTURE
     1 68O         1 TEMP              0 ****  ****    0 ROOT
