@<TRIPOS>MOLECULE
68O
   30    31     1     0     0
SMALL
No Charge or Current Charge


@<TRIPOS>ATOM
      1 FAD         -1.4200     0.1180    -1.7760 f          1 68O      -0.163000
      2 CAO         -2.3380     0.2560    -0.7910 ca         1 68O       0.156000
      3 CAG         -3.4700     1.0560    -1.0200 ca         1 68O      -0.144000
      4 CAE         -4.4470     1.1970    -0.0180 ca         1 68O      -0.086000
      5 CAF         -4.2920     0.5330     1.2120 ca         1 68O      -0.117000
      6 CAH         -3.1590    -0.2690     1.4440 ca         1 68O      -0.088000
      7 CAR         -2.1740    -0.4020     0.4500 ca         1 68O       0.053100
      8 OAL         -1.0780    -1.1980     0.7040 os         1 68O      -0.216200
      9 CAQ          0.2210    -0.7520     0.5550 ca         1 68O       0.124100
     10 CAJ          0.5430     0.6030     0.7720 ca         1 68O      -0.185000
     11 CAN          1.8660     1.0410     0.6230 ca         1 68O       0.166000
     12 FAC          2.1490     2.3470     0.8290 f          1 68O      -0.180000
     13 CAP          2.8890     0.1370     0.2660 ca         1 68O      -0.099300
     14 CAK          4.3320     0.6050     0.0980 c3         1 68O      -0.023100
     15 CAA          4.5940     1.1870    -1.3040 c3         1 68O      -0.087100
     16 CAI          2.5660    -1.2200     0.0600 ca         1 68O      -0.159000
     17 CAM          1.2410    -1.6680     0.2060 ca         1 68O       0.110100
     18 OAB          0.9540    -2.9920     0.0010 oh         1 68O      -0.510100
     19 HAG         -3.5910     1.5610    -1.9750 ha         1 68O       0.135000
     20 HAE         -5.3240     1.8160    -0.1950 ha         1 68O       0.121000
     21 HAF         -5.0500     0.6390     1.9860 ha         1 68O       0.123000
     22 HAH         -3.0410    -0.7820     2.3960 ha         1 68O       0.134000
     23 HAJ         -0.2240     1.3170     1.0570 ha         1 68O       0.144000
     24 HAL          4.5800     1.3630     0.8510 hc         1 68O       0.050200
     25 HAK          5.0260    -0.2270     0.2700 hc         1 68O       0.050200
     26 HAC          4.3950     0.4350    -2.0770 hc         1 68O       0.037367
     27 HAB          3.9490     2.0540    -1.4910 hc         1 68O       0.037367
     28 HAA          5.6380     1.5080    -1.3970 hc         1 68O       0.037367
     29 HAI          3.3500    -1.9230    -0.2160 ha         1 68O       0.118000
     30 HAM          1.7820    -3.4620    -0.2310 ho         1 68O       0.462000
@<TRIPOS>BOND
     1     1     2 1   
     2     2     3 ar  
     3     2     7 ar  
     4     3     4 ar  
     5     3    19 1   
     6     4     5 ar  
     7     4    20 1   
     8     5     6 ar  
     9     5    21 1   
    10     6     7 ar  
    11     6    22 1   
    12     7     8 1   
    13     8     9 1   
    14     9    10 ar  
    15     9    17 ar  
    16    10    11 ar  
    17    10    23 1   
    18    11    12 1   
    19    11    13 ar  
    20    13    14 1   
    21    13    16 ar  
    22    14    15 1   
    23    14    24 1   
    24    14    25 1   
    25    15    26 1   
    26    15    27 1   
    27    15    28 1   
    28    16    17 ar  
    29    16    29 1   
    30    17    18 1   
    31    18    30 1   
@<TRIPOS>SUBSTRUCTURE
     1 68O         1 TEMP              0 ****  ****    0 ROOT
