@<TRIPOS>MOLECULE
68P
   45    47     1     0     0
SMALL
No Charge or Current Charge


@<TRIPOS>ATOM
      1 C10         -0.4350    -1.2560    -0.2160 ca         1 68P      -0.095300
      2 C13          2.1530    -0.1930     1.2430 ca         1 68P      -0.083000
      3 C15         -0.2380    -2.2150    -1.2390 ca         1 68P      -0.067500
      4 C17          3.5390    -0.0090     1.4210 ca         1 68P      -0.072000
      5 C20         -1.5730    -2.9840     1.1050 ca         1 68P      -0.156500
      6 C21         -1.3830    -3.9110     0.0710 ca         1 68P       0.176000
      7 C22         -4.9400     3.9800     0.7080 c3         1 68P       0.150600
      8 C24          5.7250     0.8020     0.5990 cg         1 68P       0.320000
      9 F01         -1.8380    -5.1750     0.2070 f          1 68P      -0.178000
     10 O02          0.1820     0.5170    -1.8060 os         1 68P      -0.453000
     11 N03         -4.3490     2.7540     0.1250 n3         1 68P      -0.714600
     12 N04          6.8720     0.9620     0.7490 n1         1 68P      -0.445000
     13 C05          0.1130     0.1790    -0.3770 c5         1 68P       0.283600
     14 C06         -0.7170     1.2950     0.3260 c3         1 68P      -0.077400
     15 C07          1.5620     0.2520     0.0500 ca         1 68P      -0.092300
     16 C08          2.3130     0.8610    -0.9280 ca         1 68P      -0.125300
     17 C09         -2.1960     1.4000    -0.1250 c3         1 68P      -0.074400
     18 C11          1.4270     1.2380    -2.0820 c5         1 68P       0.206900
     19 C12         -2.9690     2.5150     0.6170 c3         1 68P       0.167800
     20 C14          3.6940     1.0580    -0.7780 ca         1 68P      -0.051000
     21 C16         -1.0980    -1.6680     0.9660 ca         1 68P      -0.067500
     22 C18          4.3130     0.6160     0.4120 ca         1 68P      -0.012000
     23 C19         -0.7130    -3.5310    -1.0980 ca         1 68P      -0.156500
     24 C23         -5.2510     1.5850     0.2720 c3         1 68P       0.150600
     25 H1           1.5550    -0.6720     2.0160 ha         1 68P       0.127000
     26 H2           0.2910    -1.9460    -2.1500 ha         1 68P       0.123500
     27 H3           4.0110    -0.3500     2.3400 ha         1 68P       0.129000
     28 H4          -2.0850    -3.2870     2.0140 ha         1 68P       0.132500
     29 H5          -4.3000     4.8510     0.5130 h1         1 68P       0.030033
     30 H6          -5.9270     4.1830     0.2690 h1         1 68P       0.030033
     31 H7          -5.0620     3.8780     1.7950 h1         1 68P       0.030033
     32 H9          -0.6810     1.1590     1.4130 hc         1 68P       0.046200
     33 H10         -0.2370     2.2640     0.1440 hc         1 68P       0.046200
     34 H11         -2.2330     1.5990    -1.2020 hc         1 68P       0.059200
     35 H12         -2.6930     0.4380     0.0410 hc         1 68P       0.059200
     36 H13          1.8350     0.9220    -3.0510 h1         1 68P       0.061200
     37 H14          1.2310     2.3180    -2.0990 h1         1 68P       0.061200
     38 H15         -2.3880     3.4420     0.5110 h1         1 68P       0.025700
     39 H16         -2.9910     2.2740     1.6880 h1         1 68P       0.025700
     40 H17          4.2710     1.5420    -1.5630 ha         1 68P       0.132000
     41 H18         -1.2480    -0.9760     1.7900 ha         1 68P       0.123500
     42 H19         -0.5590    -4.2560    -1.8930 ha         1 68P       0.132500
     43 H20         -6.2570     1.8250    -0.0960 h1         1 68P       0.030033
     44 H21         -4.8870     0.7260    -0.3050 h1         1 68P       0.030033
     45 H22         -5.3340     1.2860     1.3260 h1         1 68P       0.030033
@<TRIPOS>BOND
     1     1     3 ar  
     2     1    13 1   
     3     1    21 ar  
     4     2     4 ar  
     5     2    15 ar  
     6     2    25 1   
     7     3    23 ar  
     8     3    26 1   
     9     4    22 ar  
    10     4    27 1   
    11     5     6 ar  
    12     5    21 ar  
    13     5    28 1   
    14     6     9 1   
    15     6    23 ar  
    16     7    11 1   
    17     7    29 1   
    18     7    30 1   
    19     7    31 1   
    20     8    12 3   
    21     8    22 1   
    22    10    13 1   
    23    10    18 1   
    24    11    19 1   
    25    11    24 1   
    26    13    14 1   
    27    13    15 1   
    28    14    17 1   
    29    14    32 1   
    30    14    33 1   
    31    15    16 ar  
    32    16    18 1   
    33    16    20 ar  
    34    17    19 1   
    35    17    34 1   
    36    17    35 1   
    37    18    36 1   
    38    18    37 1   
    39    19    38 1   
    40    19    39 1   
    41    20    22 ar  
    42    20    40 1   
    43    21    41 1   
    44    23    42 1   
    45    24    43 1   
    46    24    44 1   
    47    24    45 1   
@<TRIPOS>SUBSTRUCTURE
     1 68P         1 TEMP              0 ****  ****    0 ROOT
