@<TRIPOS>MOLECULE
68P
   45    47     1     0     0
SMALL
abcg2


@<TRIPOS>ATOM
      1 C10         -0.4570    -1.2050    -0.2120 ca         1 68P      -0.095300
      2 C13          2.1070    -0.0870     1.2880 ca         1 68P      -0.083000
      3 C15         -0.4700    -2.0920    -1.2860 ca         1 68P      -0.067500
      4 C17          3.4700     0.1010     1.4580 ca         1 68P      -0.072000
      5 C20         -1.3510    -2.9620     1.2000 ca         1 68P      -0.156500
      6 C21         -1.3490    -3.8110     0.1120 ca         1 68P       0.176000
      7 C22         -4.8380     3.8790     0.7500 c3         1 68P       0.150600
      8 C24          5.6360     0.8320     0.6120 cg         1 68P       0.320000
      9 F01         -1.7820    -5.0720     0.2670 f          1 68P      -0.178000
     10 O02          0.1590     0.5300    -1.7470 os         1 68P      -0.453000
     11 N03         -4.2510     2.7340     0.0890 n3         1 68P      -0.714600
     12 N04          6.7690     0.9780     0.7630 n1         1 68P      -0.445000
     13 C05          0.0910     0.2040    -0.3660 c5         1 68P       0.283600
     14 C06         -0.7470     1.2600     0.3710 c3         1 68P      -0.077400
     15 C07          1.5330     0.2760     0.0820 ca         1 68P      -0.092300
     16 C08          2.2930     0.8210    -0.9380 ca         1 68P      -0.125300
     17 C09         -2.1710     1.3920    -0.1540 c3         1 68P      -0.074400
     18 C11          1.3980     1.1210    -2.0960 c5         1 68P       0.206900
     19 C12         -2.9640     2.3980     0.6690 c3         1 68P       0.167800
     20 C14          3.6510     1.0190    -0.7900 ca         1 68P      -0.051000
     21 C16         -0.9040    -1.6600     1.0260 ca         1 68P      -0.067500
     22 C18          4.2330     0.6500     0.4240 ca         1 68P      -0.012000
     23 C19         -0.9170    -3.3970    -1.1320 ca         1 68P      -0.156500
     24 C23         -5.1750     1.6200     0.0870 c3         1 68P       0.150600
     25 H1           1.5240    -0.5190     2.0910 ha         1 68P       0.127000
     26 H2          -0.1320    -1.7720    -2.2610 ha         1 68P       0.123500
     27 H3           3.9450    -0.1810     2.3870 ha         1 68P       0.129000
     28 H4          -1.6950    -3.3030     2.1670 ha         1 68P       0.132500
     29 H5          -4.1610     4.7330     0.6980 h1         1 68P       0.030033
     30 H6          -5.7680     4.1600     0.2530 h1         1 68P       0.030033
     31 H7          -5.0710     3.7000     1.8120 h1         1 68P       0.030033
     32 H9          -0.7570     1.0350     1.4410 hc         1 68P       0.046200
     33 H10         -0.2310     2.2210     0.2800 hc         1 68P       0.046200
     34 H11         -2.1510     1.7220    -1.1950 hc         1 68P       0.059200
     35 H12         -2.6620     0.4160    -0.1420 hc         1 68P       0.059200
     36 H13          1.7560     0.6860    -3.0330 h1         1 68P       0.061200
     37 H14          1.2940     2.2010    -2.2490 h1         1 68P       0.061200
     38 H15         -2.3840     3.3230     0.7370 h1         1 68P       0.025700
     39 H16         -3.0680     2.0240     1.7030 h1         1 68P       0.025700
     40 H17          4.2510     1.4440    -1.5840 ha         1 68P       0.132000
     41 H18         -0.9180    -1.0020     1.8850 ha         1 68P       0.123500
     42 H19         -0.9280    -4.0800    -1.9720 ha         1 68P       0.132500
     43 H20         -6.1110     1.9180    -0.3870 h1         1 68P       0.030033
     44 H21         -4.7780     0.7800    -0.4830 h1         1 68P       0.030033
     45 H22         -5.4150     1.2560     1.0990 h1         1 68P       0.030033
@<TRIPOS>BOND
     1     1     3 ar  
     2     1    13 1   
     3     1    21 ar  
     4     2     4 ar  
     5     2    15 ar  
     6     2    25 1   
     7     3    23 ar  
     8     3    26 1   
     9     4    22 ar  
    10     4    27 1   
    11     5     6 ar  
    12     5    21 ar  
    13     5    28 1   
    14     6     9 1   
    15     6    23 ar  
    16     7    11 1   
    17     7    29 1   
    18     7    30 1   
    19     7    31 1   
    20     8    12 3   
    21     8    22 1   
    22    10    13 1   
    23    10    18 1   
    24    11    19 1   
    25    11    24 1   
    26    13    14 1   
    27    13    15 1   
    28    14    17 1   
    29    14    32 1   
    30    14    33 1   
    31    15    16 ar  
    32    16    18 1   
    33    16    20 ar  
    34    17    19 1   
    35    17    34 1   
    36    17    35 1   
    37    18    36 1   
    38    18    37 1   
    39    19    38 1   
    40    19    39 1   
    41    20    22 ar  
    42    20    40 1   
    43    21    41 1   
    44    23    42 1   
    45    24    43 1   
    46    24    44 1   
    47    24    45 1   
@<TRIPOS>SUBSTRUCTURE
     1 68P         1 TEMP              0 ****  ****    0 ROOT
