@<TRIPOS>MOLECULE
68Q
   30    31     1     0     0
SMALL
No Charge or Current Charge


@<TRIPOS>ATOM
      1 OAA         -6.6060    -2.1620    -0.4160 o          1 68Q      -0.715000
      2 CAO         -5.4000    -1.9750    -0.3240 c          1 68Q       0.712600
      3 OAC         -4.5910    -2.8910    -0.2760 o          1 68Q      -0.715000
      4 CAU         -4.8870    -0.5430    -0.2660 ca         1 68Q      -0.119600
      5 CAL         -3.5000    -0.2750    -0.1590 ca         1 68Q      -0.076000
      6 CAH         -5.7860     0.5470    -0.3170 ca         1 68Q      -0.092000
      7 CAF         -5.3110     1.8670    -0.2640 ca         1 68Q      -0.130000
      8 CAG         -3.9350     2.1170    -0.1580 ca         1 68Q      -0.177000
      9 CAQ         -3.0170     1.0540    -0.1050 ca         1 68Q      -0.076000
     10 NAM         -1.6380     1.3920     0.0020 ns         1 68Q      -0.156000
     11 CAP         -0.4840     0.6210     0.0770 c          1 68Q       0.656100
     12 OAB         -0.4660    -0.6040     0.0610 o          1 68Q      -0.581100
     13 NAN          0.6490     1.4160     0.1710 ns         1 68Q      -0.168000
     14 CAR          2.0320     1.1030     0.2700 ca         1 68Q       0.032000
     15 CAK          2.5400    -0.2150     0.2900 ca         1 68Q      -0.129000
     16 CAT          3.9240    -0.4440     0.3890 ca         1 68Q       0.153000
     17 Cl1          4.5130    -2.1070     0.4110 cl         1 68Q      -0.179000
     18 CAS          4.8180     0.6430     0.4690 ca         1 68Q       0.071000
     19 Cl2          6.5600     0.3890     0.5950 cl         1 68Q      -0.194000
     20 CAJ          4.3180     1.9550     0.4500 ca         1 68Q      -0.067000
     21 CAI          2.9340     2.1800     0.3500 ca         1 68Q      -0.184000
     22 H2          -2.8120    -1.1130    -0.1200 ha         1 68Q       0.150000
     23 H3          -6.8570     0.3750    -0.3990 ha         1 68Q       0.130000
     24 H4          -6.0120     2.6970    -0.3040 ha         1 68Q       0.087000
     25 H5          -3.5820     3.1450    -0.1180 ha         1 68Q       0.080000
     26 H6          -1.4700     2.3890     0.0280 hn         1 68Q       0.130000
     27 H7           0.4580     2.4100     0.1710 hn         1 68Q       0.144000
     28 H8           1.8860    -1.0770     0.2300 ha         1 68Q       0.178000
     29 H9           5.0040     2.7960     0.5110 ha         1 68Q       0.122000
     30 H10          2.5630     3.2030     0.3360 ha         1 68Q       0.112000
@<TRIPOS>BOND
     1     1     2 1   
     2     2     3 1   
     3     2     4 1   
     4     4     5 ar  
     5     4     6 ar  
     6     5     9 ar  
     7     5    22 1   
     8     6     7 ar  
     9     6    23 1   
    10     7     8 ar  
    11     7    24 1   
    12     8     9 ar  
    13     8    25 1   
    14     9    10 1   
    15    10    11 1   
    16    10    26 1   
    17    11    12 2   
    18    11    13 1   
    19    13    14 1   
    20    13    27 1   
    21    14    15 ar  
    22    14    21 ar  
    23    15    16 ar  
    24    15    28 1   
    25    16    17 1   
    26    16    18 ar  
    27    18    19 1   
    28    18    20 ar  
    29    20    21 ar  
    30    20    29 1   
    31    21    30 1   
@<TRIPOS>SUBSTRUCTURE
     1 68Q         1 TEMP              0 ****  ****    0 ROOT
