@<TRIPOS>MOLECULE
68Q
   30    31     1     0     0
SMALL
bcc


@<TRIPOS>ATOM
      1 OAA         -6.3660    -2.2150     0.0430 o          1 68Q      -0.820300
      2 CAO         -5.1940    -1.9250     0.3460 c          1 68Q       0.923200
      3 OAC         -4.3710    -2.6570     0.9300 o          1 68Q      -0.820300
      4 CAU         -4.7170    -0.5270    -0.0360 ca         1 68Q      -0.119600
      5 CAL         -3.4190    -0.1280     0.2680 ca         1 68Q      -0.094000
      6 CAH         -5.5740     0.3690    -0.6700 ca         1 68Q      -0.110000
      7 CAF         -5.1350     1.6450    -0.9910 ca         1 68Q      -0.148000
      8 CAG         -3.8360     2.0340    -0.7040 ca         1 68Q      -0.195000
      9 CAQ         -2.9690     1.1440    -0.0740 ca         1 68Q       0.016600
     10 NAM         -1.6750     1.5890     0.2460 ns         1 68Q      -0.482100
     11 CAP         -0.5360     0.8540     0.0840 c          1 68Q       0.790100
     12 OAB         -0.5210    -0.2880    -0.3370 o          1 68Q      -0.581100
     13 NAN          0.5900     1.5450     0.4590 ns         1 68Q      -0.494100
     14 CAR          1.9150     1.1390     0.3790 ca         1 68Q       0.124600
     15 CAK          2.3420    -0.0600    -0.1910 ca         1 68Q      -0.147000
     16 CAT          3.6960    -0.3590    -0.2290 ca         1 68Q       0.061400
     17 CL1          4.1830    -1.8510    -0.9440 cl         1 68Q      -0.087400
     18 CAS          4.6440     0.5090     0.2900 ca         1 68Q      -0.020600
     19 CL2          6.3250     0.1300     0.2440 cl         1 68Q      -0.102400
     20 CAJ          4.2180     1.7010     0.8570 ca         1 68Q      -0.085000
     21 CAI          2.8750     2.0130     0.9010 ca         1 68Q      -0.202000
     22 H2          -2.7710    -0.8180     0.7880 ha         1 68Q       0.168000
     23 H3          -6.5850     0.0690    -0.9060 ha         1 68Q       0.148000
     24 H4          -5.8030     2.3440    -1.4780 ha         1 68Q       0.105000
     25 H5          -3.4930     3.0260    -0.9710 ha         1 68Q       0.098000
     26 H6          -1.5790     2.5830     0.3860 hn         1 68Q       0.296500
     27 H7           0.4530     2.4500     0.8850 hn         1 68Q       0.310500
     28 H8           1.6390    -0.7650    -0.6020 ha         1 68Q       0.196000
     29 H9           4.9420     2.3920     1.2660 ha         1 68Q       0.140000
     30 H10          2.5680     2.9500     1.3470 ha         1 68Q       0.130000
@<TRIPOS>BOND
     1     1     2 1   
     2     2     3 1   
     3     2     4 1   
     4     4     5 ar  
     5     4     6 ar  
     6     5     9 ar  
     7     5    22 1   
     8     6     7 ar  
     9     6    23 1   
    10     7     8 ar  
    11     7    24 1   
    12     8     9 ar  
    13     8    25 1   
    14     9    10 1   
    15    10    11 1   
    16    10    26 1   
    17    11    12 2   
    18    11    13 1   
    19    13    14 1   
    20    13    27 1   
    21    14    15 ar  
    22    14    21 ar  
    23    15    16 ar  
    24    15    28 1   
    25    16    17 1   
    26    16    18 ar  
    27    18    19 1   
    28    18    20 ar  
    29    20    21 ar  
    30    20    29 1   
    31    21    30 1   
@<TRIPOS>SUBSTRUCTURE
     1 68Q         1 TEMP              0 ****  ****    0 ROOT
