@<TRIPOS>MOLECULE
68R
   54    58     1     0     0
SMALL
No Charge or Current Charge


@<TRIPOS>ATOM
      1 C10          1.6540    -0.0170     0.8190 c          1 68R       0.575600
      2 C13          0.4180    -2.1710     0.8100 ca         1 68R       0.023600
      3 C15          0.5280    -4.5580     1.2950 ca         1 68R      -0.102000
      4 C17         -1.2430    -3.2000     2.2670 ca         1 68R      -0.102000
      5 C20          0.1400    -2.3830    -3.3060 c3         1 68R      -0.093100
      6 C22         -2.6870    -1.4820    -1.0920 ca         1 68R       0.439900
      7 C24         -4.0390    -0.7260     0.7170 ca         1 68R       0.433900
      8 C26         -4.1860    -2.8630    -0.0630 ca         1 68R       0.212900
      9 C01          3.2620     3.2500    -0.3940 ca         1 68R      -0.135000
     10 C02          2.9140     3.2130    -1.7470 ca         1 68R      -0.068000
     11 C03          2.1610     2.1390    -2.2340 ca         1 68R      -0.106000
     12 C04          1.7510     1.0900    -1.3920 ca         1 68R       0.197400
     13 C05          2.1040     1.1220    -0.0280 ca         1 68R      -0.193600
     14 C06          2.8610     2.2190     0.4700 ca         1 68R       0.181000
     15 N07          0.9940     0.0850    -2.0020 nc         1 68R      -0.642100
     16 C08          0.6100    -0.9230    -1.2020 cd         1 68R       0.502900
     17 N09          0.9430    -1.0080     0.1560 n          1 68R      -0.259500
     18 O11          1.8850    -0.1140     2.0160 o          1 68R      -0.493000
     19 C14          1.0530    -3.4190     0.6590 ca         1 68R      -0.085500
     20 C16         -0.6230    -4.4490     2.0940 ca         1 68R      -0.098000
     21 C18         -0.7170    -2.0620     1.6340 ca         1 68R      -0.085500
     22 C19         -0.3520    -1.9230    -1.9140 c3         1 68R       0.206200
     23 N21         -1.7070    -1.3290    -2.0590 nu         1 68R      -0.930100
     24 C23         -3.0440    -0.4280    -0.2310 ca         1 68R      -0.242000
     25 N25         -4.6180    -1.9290     0.8060 nb         1 68R      -0.300000
     26 N27         -3.2420    -2.7000    -1.0090 nb         1 68R      -0.301000
     27 N28         -4.4810     0.1800     1.6280 nv         1 68R      -1.069900
     28 C29         -2.3680     0.8480    -0.2670 cg         1 68R      -0.103000
     29 C30         -1.7600     1.9050    -0.2770 ch         1 68R      -0.099000
     30 C31         -0.9930     3.0960    -0.2250 cd         1 68R      -0.099000
     31 C32         -0.3450     3.5810     0.8760 cc         1 68R      -0.143000
     32 N33          0.2480     4.7610     0.4320 na         1 68R      -0.000200
     33 N34          0.0030     5.0370    -0.9030 nc         1 68R      -0.519800
     34 C35         -0.7440     4.0120    -1.2740 cd         1 68R       0.263900
     35 H1           1.0140    -5.5230     1.1700 ha         1 68R       0.118500
     36 H2          -2.1280    -3.1130     2.8940 ha         1 68R       0.118500
     37 H3           0.1780    -1.5480    -4.0170 hc         1 68R       0.052367
     38 H4           1.1440    -2.8180    -3.2310 hc         1 68R       0.052367
     39 H5          -0.5310    -3.1470    -3.7160 hc         1 68R       0.052367
     40 H6          -4.6450    -3.8470     0.0070 h5         1 68R       0.043100
     41 H7           3.8410     4.0850    -0.0080 ha         1 68R       0.133000
     42 H8           3.2200     4.0160    -2.4150 ha         1 68R       0.122000
     43 H9           1.8860     2.1180    -3.2850 ha         1 68R       0.137000
     44 H10          1.9460    -3.5080     0.0440 ha         1 68R       0.122000
     45 H11         -1.0300    -5.3310     2.5860 ha         1 68R       0.117000
     46 H12         -1.1930    -1.0960     1.7810 ha         1 68R       0.122000
     47 H13         -0.4340    -2.8500    -1.3340 h1         1 68R       0.110700
     48 H14         -1.6580    -0.3510    -2.3500 hn         1 68R       0.509000
     49 H15         -5.3540    -0.0120     2.1120 hn         1 68R       0.502000
     50 H16         -4.2410     1.1580     1.4840 hn         1 68R       0.502000
     51 H17         -0.2600     3.2090     1.8910 h4         1 68R       0.162000
     52 H18          0.8110     5.3920     1.0030 hn         1 68R       0.375000
     53 H19         -1.0940     3.9570    -2.2980 h4         1 68R       0.044100
     54 Cl1          3.3500     2.3940     2.1580 cl         1 68R      -0.162000
@<TRIPOS>BOND
     1     1    13 1   
     2     1    17 1   
     3     1    18 2   
     4     2    17 1   
     5     2    19 ar  
     6     2    21 ar  
     7     3    19 ar  
     8     3    20 ar  
     9     3    35 1   
    10     4    20 ar  
    11     4    21 ar  
    12     4    36 1   
    13     5    22 1   
    14     5    37 1   
    15     5    38 1   
    16     5    39 1   
    17     6    23 1   
    18     6    24 ar  
    19     6    26 ar  
    20     7    24 ar  
    21     7    25 ar  
    22     7    27 1   
    23     8    25 ar  
    24     8    26 ar  
    25     8    40 1   
    26     9    10 ar  
    27     9    14 ar  
    28     9    41 1   
    29    10    11 ar  
    30    10    42 1   
    31    11    12 ar  
    32    11    43 1   
    33    12    13 ar  
    34    12    15 1   
    35    13    14 ar  
    36    14    54 1   
    37    15    16 2   
    38    16    17 1   
    39    16    22 1   
    40    19    44 1   
    41    20    45 1   
    42    21    46 1   
    43    22    23 1   
    44    22    47 1   
    45    23    48 1   
    46    24    28 1   
    47    27    49 1   
    48    27    50 1   
    49    28    29 3   
    50    29    30 1   
    51    30    31 2   
    52    30    34 1   
    53    31    32 1   
    54    31    51 1   
    55    32    33 1   
    56    32    52 1   
    57    33    34 2   
    58    34    53 1   
@<TRIPOS>SUBSTRUCTURE
     1 68R         1 TEMP              0 ****  ****    0 ROOT
