@<TRIPOS>MOLECULE
68R
   54    58     1     0     0
SMALL
abcg2


@<TRIPOS>ATOM
      1 C10          2.6150    -0.5910     0.6700 c          1 68R       0.575600
      2 C13          0.5910    -1.8610     0.8380 ca         1 68R       0.023600
      3 C15         -0.1560    -3.9880     1.6440 ca         1 68R      -0.102000
      4 C17         -1.2020    -1.9670     2.4210 ca         1 68R      -0.102000
      5 C20         -0.0530    -1.3580    -3.4300 c3         1 68R      -0.093100
      6 C22         -2.2350    -1.3210    -0.7740 ca         1 68R       0.439900
      7 C24         -4.2920    -1.2710     0.4480 ca         1 68R       0.433900
      8 C26         -3.3260    -3.2080    -0.1960 ca         1 68R       0.212900
      9 C01          5.4830     1.5400    -0.5740 ca         1 68R      -0.135000
     10 C02          5.1180     1.6880    -1.9110 ca         1 68R      -0.068000
     11 C03          3.9650     1.1120    -2.3890 ca         1 68R      -0.106000
     12 C04          3.1500     0.3690    -1.5290 ca         1 68R       0.197400
     13 C05          3.5010     0.2050    -0.1770 ca         1 68R      -0.193600
     14 C06          4.6850     0.8090     0.2820 ca         1 68R       0.181000
     15 N07          2.0090    -0.1770    -2.0580 nc         1 68R      -0.642100
     16 C08          1.2280    -0.8600    -1.3110 cd         1 68R       0.502900
     17 N09          1.4780    -1.0840     0.0220 n          1 68R      -0.259500
     18 O11          2.7950    -0.8440     1.8410 o          1 68R      -0.493000
     19 C14          0.7000    -3.2420     0.8460 ca         1 68R      -0.085500
     20 C16         -1.1070    -3.3530     2.4290 ca         1 68R      -0.098000
     21 C18         -0.3480    -1.2170     1.6270 ca         1 68R      -0.085500
     22 C19         -0.0480    -1.4240    -1.9110 c3         1 68R       0.206200
     23 N21         -1.1710    -0.7190    -1.3380 nu         1 68R      -0.930100
     24 C23         -3.2410    -0.5530    -0.1560 ca         1 68R      -0.242000
     25 N25         -4.3240    -2.6120     0.4250 nb         1 68R      -0.300000
     26 N27         -2.2970    -2.6540    -0.8060 nb         1 68R      -0.301000
     27 N28         -5.2870    -0.6460     1.0870 nv         1 68R      -1.069900
     28 C29         -3.1720     0.8560    -0.1050 cg         1 68R      -0.103000
     29 C30         -3.0950     2.0640    -0.0650 ch         1 68R      -0.099000
     30 C31         -3.0190     3.4730    -0.0230 cd         1 68R      -0.099000
     31 C32         -2.0150     4.2520     0.5260 cc         1 68R      -0.143000
     32 N33         -2.3740     5.5220     0.3190 na         1 68R      -0.000200
     33 N34         -3.5340     5.6480    -0.3190 nc         1 68R      -0.519800
     34 C35         -3.9400     4.4160    -0.5370 cd         1 68R       0.263900
     35 H1          -0.0780    -5.0670     1.6490 ha         1 68R       0.118500
     36 H2          -1.9440    -1.4660     3.0270 ha         1 68R       0.118500
     37 H3          -0.0090    -0.3310    -3.7880 hc         1 68R       0.052367
     38 H4           0.7880    -1.9050    -3.8520 hc         1 68R       0.052367
     39 H5          -0.9740    -1.8140    -3.7940 hc         1 68R       0.052367
     40 H6          -3.3590    -4.2930    -0.2140 h5         1 68R       0.043100
     41 H7           6.3900     1.9980    -0.2060 ha         1 68R       0.133000
     42 H8           5.7530     2.2660    -2.5700 ha         1 68R       0.122000
     43 H9           3.6680     1.2200    -3.4230 ha         1 68R       0.137000
     44 H10          1.4470    -3.7310     0.2340 ha         1 68R       0.122000
     45 H11         -1.7760    -3.9380     3.0460 ha         1 68R       0.117000
     46 H12         -0.4230    -0.1370     1.6090 ha         1 68R       0.122000
     47 H13         -0.1480    -2.4680    -1.6110 h1         1 68R       0.110700
     48 H14         -1.1710     0.2890    -1.3890 hn         1 68R       0.509000
     49 H15         -6.0580    -1.1820     1.4460 hn         1 68R       0.502000
     50 H16         -5.3790     0.3550     1.0670 hn         1 68R       0.502000
     51 H17         -1.1010     3.9830     1.0290 h4         1 68R       0.162000
     52 H18         -1.8590     6.3450     0.5890 hn         1 68R       0.375000
     53 H19         -4.8700     4.2190    -1.0490 h4         1 68R       0.044100
     54 CL1          5.2180     0.6910     1.9200 cl         1 68R      -0.162000
@<TRIPOS>BOND
     1     1    13 1   
     2     1    17 1   
     3     1    18 2   
     4     2    17 1   
     5     2    19 ar  
     6     2    21 ar  
     7     3    19 ar  
     8     3    20 ar  
     9     3    35 1   
    10     4    20 ar  
    11     4    21 ar  
    12     4    36 1   
    13     5    22 1   
    14     5    37 1   
    15     5    38 1   
    16     5    39 1   
    17     6    23 1   
    18     6    24 ar  
    19     6    26 ar  
    20     7    24 ar  
    21     7    25 ar  
    22     7    27 1   
    23     8    25 ar  
    24     8    26 ar  
    25     8    40 1   
    26     9    10 ar  
    27     9    14 ar  
    28     9    41 1   
    29    10    11 ar  
    30    10    42 1   
    31    11    12 ar  
    32    11    43 1   
    33    12    13 ar  
    34    12    15 1   
    35    13    14 ar  
    36    14    54 1   
    37    15    16 2   
    38    16    17 1   
    39    16    22 1   
    40    19    44 1   
    41    20    45 1   
    42    21    46 1   
    43    22    23 1   
    44    22    47 1   
    45    23    48 1   
    46    24    28 1   
    47    27    49 1   
    48    27    50 1   
    49    28    29 3   
    50    29    30 1   
    51    30    31 2   
    52    30    34 1   
    53    31    32 1   
    54    31    51 1   
    55    32    33 1   
    56    32    52 1   
    57    33    34 2   
    58    34    53 1   
@<TRIPOS>SUBSTRUCTURE
     1 68R         1 TEMP              0 ****  ****    0 ROOT
