@<TRIPOS>MOLECULE
68T
   54    56     1     0     0
SMALL
abcg2


@<TRIPOS>ATOM
      1 C1           2.1200    -1.8460     0.8470 ca         1 68T       0.216100
      2 C2           0.9590    -2.4750     1.2870 ca         1 68T      -0.309000
      3 C3          -0.2850    -2.0790     0.8090 ca         1 68T       0.239100
      4 O1          -1.4320    -2.6260     1.2060 os         1 68T      -0.316100
      5 O2          -3.2370     0.9880    -2.8410 o          1 68T      -0.529000
      6 O3          -5.8810     2.0570     2.6320 os         1 68T      -0.340100
      7 C11         -6.6980     0.4720     0.9930 ca         1 68T      -0.145000
      8 C12         -6.5020    -0.1410    -0.2370 ca         1 68T      -0.093000
      9 C13         -5.4010     0.1570    -1.0220 ca         1 68T      -0.029000
     10 C14          0.8090    -0.3950    -0.5150 ca         1 68T       0.003000
     11 C15          2.0700    -0.7910    -0.0830 ca         1 68T      -0.086000
     12 C16          3.2630    -0.1280    -0.6040 cc         1 68T      -0.143000
     13 C17          3.3160     0.7090    -1.6960 cd         1 68T      -0.145000
     14 C18          4.5920     1.2500    -1.9360 cd         1 68T      -0.101000
     15 C19          5.5260     0.8270    -1.0260 cc         1 68T      -0.118000
     16 C20          6.8960     1.1470    -0.9690 cg         1 68T      -0.073000
     17 C21          8.0700     1.4230    -0.9130 c1         1 68T      -0.124100
     18 C22          9.4890     1.7450    -0.8690 c3         1 68T       0.254700
     19 O5          -2.5340    -1.3300    -1.0460 o          1 68T      -0.536100
     20 N           -1.8030     0.7880    -0.7500 ns         1 68T      -0.590300
     21 S           -3.0940     1.5400    -1.5110 sy         1 68T       1.179300
     22 O4          -2.8210     2.9540    -1.3350 o          1 68T      -0.529000
     23 C7          -4.5030     1.0980    -0.5400 ca         1 68T      -0.250500
     24 C9          -5.7800     1.4120     1.4600 ca         1 68T       0.120100
     25 C10         -6.9950     1.7800     3.4620 c3         1 68T       0.147900
     26 C8          -4.6720     1.7340     0.6770 ca         1 68T      -0.056000
     27 C5          -0.3620    -1.0160    -0.1070 ca         1 68T      -0.240600
     28 C4          -1.4090    -3.6600     2.1760 c3         1 68T       0.147900
     29 O            3.3350    -2.1910     1.2700 os         1 68T      -0.340100
     30 C            3.4940    -3.2200     2.2340 c3         1 68T       0.150900
     31 S1           4.8260    -0.2570     0.1220 ss         1 68T       0.285000
     32 O6           9.6860     2.8820    -0.0600 oh         1 68T      -0.647000
     33 H1           1.0290    -3.2750     2.0090 ha         1 68T       0.127000
     34 H2          -7.5710     0.2050     1.5740 ha         1 68T       0.118000
     35 H3          -7.2250    -0.8660    -0.5850 ha         1 68T       0.118000
     36 H4          -5.2550    -0.3290    -1.9750 ha         1 68T       0.151000
     37 H5           0.7360     0.4250    -1.2170 ha         1 68T       0.128000
     38 H6           2.4630     0.9250    -2.3240 ha         1 68T       0.133000
     39 H7           4.8210     1.9180    -2.7530 ha         1 68T       0.140000
     40 H8          10.0320     0.8700    -0.4900 h1         1 68T       0.035200
     41 H9           9.8380     1.9070    -1.8970 h1         1 68T       0.035200
     42 H10         -1.1650     1.4030    -0.2590 hn         1 68T       0.349500
     43 H11         -6.8810     2.4050     4.3440 h1         1 68T       0.042700
     44 H12         -7.9390     2.0290     2.9720 h1         1 68T       0.042700
     45 H13         -7.0200     0.7330     3.7730 h1         1 68T       0.042700
     46 H14         -3.9660     2.4720     1.0370 ha         1 68T       0.141000
     47 H15         -0.8610    -4.5360     1.8220 h1         1 68T       0.046700
     48 H16         -0.9740    -3.3210     3.1190 h1         1 68T       0.046700
     49 H17         -2.4450    -3.9390     2.3460 h1         1 68T       0.046700
     50 H18          3.1210    -4.1770     1.8640 h1         1 68T       0.047700
     51 H19          4.5620    -3.3020     2.4140 h1         1 68T       0.047700
     52 H20          2.9920    -2.9710     3.1710 h1         1 68T       0.047700
     53 H21         10.6240     3.0960    -0.0860 ho         1 68T       0.445000
     54 C6          -1.6620    -0.5820    -0.6690 c          1 68T       0.664700
@<TRIPOS>BOND
     1     1     2 ar  
     2     1    11 ar  
     3     1    29 1   
     4     2     3 ar  
     5     2    33 1   
     6     3     4 1   
     7     3    27 ar  
     8     4    28 1   
     9     5    21 2   
    10     6    24 1   
    11     6    25 1   
    12     7     8 ar  
    13     7    24 ar  
    14     7    34 1   
    15     8     9 ar  
    16     8    35 1   
    17     9    23 ar  
    18     9    36 1   
    19    10    11 ar  
    20    10    27 ar  
    21    10    37 1   
    22    11    12 1   
    23    12    13 2   
    24    12    31 1   
    25    13    14 1   
    26    13    38 1   
    27    14    15 2   
    28    14    39 1   
    29    15    16 1   
    30    15    31 1   
    31    16    17 3   
    32    17    18 1   
    33    18    32 1   
    34    18    40 1   
    35    18    41 1   
    36    19    54 2   
    37    20    21 1   
    38    20    42 1   
    39    20    54 1   
    40    21    22 2   
    41    21    23 1   
    42    23    26 ar  
    43    24    26 ar  
    44    25    43 1   
    45    25    44 1   
    46    25    45 1   
    47    26    46 1   
    48    27    54 1   
    49    28    47 1   
    50    28    48 1   
    51    28    49 1   
    52    29    30 1   
    53    30    50 1   
    54    30    51 1   
    55    30    52 1   
    56    32    53 1   
@<TRIPOS>SUBSTRUCTURE
     1 68T         1 TEMP              0 ****  ****    0 ROOT
