@<TRIPOS>MOLECULE
68T
   54    56     1     0     0
SMALL
No Charge or Current Charge


@<TRIPOS>ATOM
      1 C1           2.0620    -2.1360     0.7630 ca         1 68T       0.216100
      2 C2           0.8720    -2.7990     1.1210 ca         1 68T      -0.309000
      3 C3          -0.3700    -2.3890     0.5930 ca         1 68T       0.239100
      4 O1          -1.5440    -3.0110     0.9710 os         1 68T      -0.316100
      5 O2          -3.5000     0.6080    -3.0670 o          1 68T      -0.529000
      6 O3          -5.4380     2.6980     2.5690 os         1 68T      -0.340100
      7 C11         -6.4400     0.8340     1.3350 ca         1 68T      -0.145000
      8 C12         -6.4050    -0.0170     0.2150 ca         1 68T      -0.093000
      9 C13         -5.3970     0.1240    -0.7540 ca         1 68T      -0.029000
     10 C14          0.7740    -0.6410    -0.6570 ca         1 68T       0.003000
     11 C15          2.0150    -1.0470    -0.1340 ca         1 68T      -0.086000
     12 C16          3.2310    -0.3260    -0.5300 cc         1 68T      -0.143000
     13 C17          3.4620     0.0190    -1.8390 cd         1 68T      -0.145000
     14 C18          4.6880     0.7200    -2.0140 cd         1 68T      -0.101000
     15 C19          5.3820     0.9050    -0.8420 cc         1 68T      -0.118000
     16 C20          6.6310     1.5650    -0.7030 cg         1 68T      -0.073000
     17 C21          7.7070     2.1220    -0.6120 c1         1 68T      -0.124100
     18 C22          9.0060     2.8000    -0.5500 c3         1 68T       0.254700
     19 O5          -2.6670    -1.6040    -1.1220 o          1 68T      -0.536100
     20 N           -1.7990     0.4750    -1.2150 ns         1 68T      -0.590300
     21 S           -3.1040     1.3110    -1.8400 sy         1 68T       1.179300
     22 O4          -2.6730     2.7120    -1.8670 o          1 68T      -0.529000
     23 C7          -4.4130     1.1250    -0.6080 ca         1 68T      -0.250500
     24 C9          -5.4570     1.8360     1.4900 ca         1 68T       0.120100
     25 C10         -6.4230     2.6380     3.6170 c3         1 68T       0.147900
     26 C8          -4.4490     1.9760     0.5190 ca         1 68T      -0.056000
     27 C5          -0.4270    -1.3000    -0.3040 ca         1 68T      -0.240600
     28 C4          -1.5860    -4.1220     1.8840 c3         1 68T       0.147900
     29 O            3.2910    -2.5380     1.2570 os         1 68T      -0.340100
     30 C            3.4440    -3.6420     2.1660 c3         1 68T       0.150900
     31 S1           4.5330     0.2050     0.5370 ss         1 68T       0.285000
     32 O6           9.4800     2.8450     0.8000 oh         1 68T      -0.647000
     33 H1           0.9130    -3.6320     1.8110 ha         1 68T       0.127000
     34 H2          -7.2310     0.6990     2.0660 ha         1 68T       0.118000
     35 H3          -7.1610    -0.7910     0.0980 ha         1 68T       0.118000
     36 H4          -5.3830    -0.5490    -1.6100 ha         1 68T       0.151000
     37 H5           0.7580     0.1910    -1.3580 ha         1 68T       0.128000
     38 H6           2.7910    -0.2200    -2.6590 ha         1 68T       0.133000
     39 H7           5.0410     1.0720    -2.9780 ha         1 68T       0.140000
     40 H8           9.7170     2.2600    -1.1900 h1         1 68T       0.035200
     41 H9           8.8940     3.8150    -0.9530 h1         1 68T       0.035200
     42 H10         -1.0510     1.0920    -0.9560 hn         1 68T       0.349500
     43 H11         -6.2220     3.4090     4.3710 h1         1 68T       0.042700
     44 H12         -7.4300     2.8090     3.2160 h1         1 68T       0.042700
     45 H13         -6.4020     1.6610     4.1160 h1         1 68T       0.042700
     46 H14         -3.6960     2.7500     0.6500 ha         1 68T       0.141000
     47 H15         -1.0110    -4.9710     1.4930 h1         1 68T       0.046700
     48 H16         -1.1800    -3.8390     2.8630 h1         1 68T       0.046700
     49 H17         -2.6220    -4.4540     2.0300 h1         1 68T       0.046700
     50 H18          3.0820    -4.5740     1.7140 h1         1 68T       0.047700
     51 H19          4.5020    -3.7780     2.4230 h1         1 68T       0.047700
     52 H20          2.8910    -3.4610     3.0970 h1         1 68T       0.047700
     53 H21         10.3470     3.3080     0.7750 ho         1 68T       0.445000
     54 C6          -1.7400    -0.8440    -0.8930 c          1 68T       0.664700
@<TRIPOS>BOND
     1     1     2 ar  
     2     1    11 ar  
     3     1    29 1   
     4     2     3 ar  
     5     2    33 1   
     6     3     4 1   
     7     3    27 ar  
     8     4    28 1   
     9     5    21 2   
    10     6    24 1   
    11     6    25 1   
    12     7     8 ar  
    13     7    24 ar  
    14     7    34 1   
    15     8     9 ar  
    16     8    35 1   
    17     9    23 ar  
    18     9    36 1   
    19    10    11 ar  
    20    10    27 ar  
    21    10    37 1   
    22    11    12 1   
    23    12    13 2   
    24    12    31 1   
    25    13    14 1   
    26    13    38 1   
    27    14    15 2   
    28    14    39 1   
    29    15    16 1   
    30    15    31 1   
    31    16    17 3   
    32    17    18 1   
    33    18    32 1   
    34    18    40 1   
    35    18    41 1   
    36    19    54 2   
    37    20    21 1   
    38    20    42 1   
    39    20    54 1   
    40    21    22 2   
    41    21    23 1   
    42    23    26 ar  
    43    24    26 ar  
    44    25    43 1   
    45    25    44 1   
    46    25    45 1   
    47    26    46 1   
    48    27    54 1   
    49    28    47 1   
    50    28    48 1   
    51    28    49 1   
    52    29    30 1   
    53    30    50 1   
    54    30    51 1   
    55    30    52 1   
    56    32    53 1   
@<TRIPOS>SUBSTRUCTURE
     1 68T         1 TEMP              0 ****  ****    0 ROOT
