@<TRIPOS>MOLECULE
68U
   42    45     1     0     0
SMALL
bcc


@<TRIPOS>ATOM
      1 C1          -2.3030     4.3690     0.2250 c3         1 68U       0.095300
      2 C3          -3.7200     2.3900     0.2470 c          1 68U       0.563600
      3 C5          -3.7300     0.8850     0.1450 ca         1 68U       0.396800
      4 C7          -2.5320    -1.0490    -0.0850 ca         1 68U       0.434600
      5 C8          -3.7090    -1.8260    -0.0250 ca         1 68U      -0.266600
      6 C11         -3.5880    -3.2310    -0.0990 ca         1 68U       0.439200
      7 C15         -0.0080    -0.9930    -0.3010 cp         1 68U      -0.050000
      8 C16          1.0590    -1.3800     0.5140 ca         1 68U      -0.053000
      9 C17          2.2630    -0.7130     0.4370 ca         1 68U      -0.126300
     10 C18          3.4850    -0.9580     1.2640 c5         1 68U      -0.131300
     11 N22          3.7030     0.9080    -0.4190 nh         1 68U      -0.582900
     12 C23          4.1950     1.7900    -1.4610 c3         1 68U       0.197100
     13 C24          2.4330     0.3370    -0.4680 ca         1 68U       0.142600
     14 N2          -2.5140     2.9440     0.1490 ns         1 68U      -0.550900
     15 O4          -4.7600     3.0170     0.4030 o          1 68U      -0.599100
     16 N6          -2.5730     0.2920     0.0110 nb         1 68U      -0.678000
     17 C9          -4.9430    -1.1630     0.1190 ca         1 68U      -0.068000
     18 C10         -4.9610     0.2000     0.2020 ca         1 68U      -0.205300
     19 N12         -2.4420    -3.8410    -0.2200 nb         1 68U      -0.655000
     20 C13         -1.3210    -3.0940    -0.2860 ca         1 68U       0.405200
     21 C14         -1.2870    -1.7200    -0.2300 cp         1 68U      -0.183600
     22 S19          4.7790    -0.1800     0.2860 s6         1 68U       1.193900
     23 O21          5.7430     0.5590     1.0790 o          1 68U      -0.589800
     24 C25          1.3930     0.7240    -1.3000 ca         1 68U      -0.154000
     25 C26          0.1790     0.0610    -1.1960 ca         1 68U      -0.063000
     26 H1          -2.5720     4.7660     1.2050 h1         1 68U       0.042367
     27 H2          -1.2500     4.5710     0.0510 h1         1 68U       0.042367
     28 H3          -2.8840     4.8980    -0.5300 h1         1 68U       0.042367
     29 H4          -4.4830    -3.8450    -0.0530 h4         1 68U       0.026100
     30 H5           0.9380    -2.1880     1.2250 ha         1 68U       0.144000
     31 H6           3.4480    -0.4470     2.2270 h1         1 68U       0.116700
     32 H7           3.7380    -2.0070     1.4140 h1         1 68U       0.116700
     33 H8           4.2260     1.3050    -2.4380 h1         1 68U       0.055033
     34 H9           3.5520     2.6650    -1.5170 h1         1 68U       0.055033
     35 H10          5.1920     2.1370    -1.2010 h1         1 68U       0.055033
     36 H11         -1.7260     2.3250     0.0350 hn         1 68U       0.344500
     37 H12         -5.8600    -1.7380     0.1640 ha         1 68U       0.148000
     38 H13         -5.8860     0.7470     0.3140 ha         1 68U       0.174000
     39 H14         -0.3970    -3.6480    -0.4090 h4         1 68U       0.028100
     40 H15          1.5110     1.5230    -2.0190 ha         1 68U       0.145000
     41 H16         -0.6300     0.3600    -1.8480 ha         1 68U       0.144000
     42 O20          5.2900    -1.1120    -0.7070 o          1 68U      -0.589800
@<TRIPOS>BOND
     1     1    14 1   
     2     1    26 1   
     3     1    27 1   
     4     1    28 1   
     5     2     3 1   
     6     2    14 1   
     7     2    15 2   
     8     3    16 ar  
     9     3    18 ar  
    10     4     5 ar  
    11     4    16 ar  
    12     4    21 ar  
    13     5     6 ar  
    14     5    17 ar  
    15     6    19 ar  
    16     6    29 1   
    17     7     8 ar  
    18     7    21 1   
    19     7    25 ar  
    20     8     9 ar  
    21     8    30 1   
    22     9    10 1   
    23     9    13 ar  
    24    10    22 1   
    25    10    31 1   
    26    10    32 1   
    27    11    12 1   
    28    11    13 1   
    29    11    22 1   
    30    12    33 1   
    31    12    34 1   
    32    12    35 1   
    33    13    24 ar  
    34    14    36 1   
    35    17    18 ar  
    36    17    37 1   
    37    18    38 1   
    38    19    20 ar  
    39    20    21 ar  
    40    20    39 1   
    41    22    23 2   
    42    22    42 2   
    43    24    25 ar  
    44    24    40 1   
    45    25    41 1   
@<TRIPOS>SUBSTRUCTURE
     1 68U         1 TEMP              0 ****  ****    0 ROOT
