@<TRIPOS>MOLECULE
68U
   42    45     1     0     0
SMALL
No Charge or Current Charge


@<TRIPOS>ATOM
      1 C1          -2.4000     4.5210     0.2120 c3         1 68U       0.095300
      2 C3          -3.8510     2.4540     0.2210 c          1 68U       0.496600
      3 C5          -3.8220     0.9210     0.1420 ca         1 68U       0.331500
      4 C7          -2.5570    -1.0610    -0.0700 ca         1 68U       0.304000
      5 C8          -3.7350    -1.8380     0.0040 ca         1 68U      -0.136000
      6 C11         -3.6450    -3.2370    -0.0540 ca         1 68U       0.373900
      7 C15          0.0030    -1.0270    -0.3040 cp         1 68U      -0.050000
      8 C16          1.1020    -1.4390     0.4930 ca         1 68U      -0.035000
      9 C17          2.3360    -0.7770     0.3900 ca         1 68U      -0.126300
     10 C18          3.5780    -1.1110     1.1970 c5         1 68U      -0.242100
     11 N22          3.7860     0.8330    -0.4670 nh         1 68U      -0.721300
     12 C23          4.2760     1.7930    -1.4710 c3         1 68U       0.197100
     13 C24          2.5030     0.2830    -0.4960 ca         1 68U       0.281000
     14 N2          -2.6160     3.0740     0.1570 ns         1 68U      -0.483900
     15 O4          -4.8830     3.1100     0.3330 o          1 68U      -0.599100
     16 N6          -2.6150     0.2920     0.0060 nb         1 68U      -0.678000
     17 C9          -4.9850    -1.2100     0.1420 ca         1 68U      -0.050000
     18 C10         -5.0240     0.1900     0.2090 ca         1 68U      -0.122000
     19 N12         -2.4730    -3.8940    -0.1720 nb         1 68U      -0.655000
     20 C13         -1.3460    -3.1530    -0.2430 ca         1 68U       0.339900
     21 C14         -1.3140    -1.7390    -0.2070 cp         1 68U      -0.053000
     22 S19          4.9420    -0.1690     0.3370 s6         1 68U       1.163100
     23 O21          5.6990     0.6810     1.2630 o          1 68U      -0.519000
     24 C25          1.4380     0.7120    -1.3000 ca         1 68U      -0.136000
     25 C26          0.1970     0.0550    -1.2060 ca         1 68U      -0.045000
     26 H1          -2.7840     4.9170     1.1600 h1         1 68U       0.042367
     27 H2          -1.3260     4.7340     0.1390 h1         1 68U       0.042367
     28 H3          -2.9220     5.0050    -0.6240 h1         1 68U       0.042367
     29 H4          -4.5390    -3.8570     0.0030 h4         1 68U       0.026100
     30 H5           0.9910    -2.2610     1.1960 ha         1 68U       0.126000
     31 H6           3.5300    -0.7300     2.2230 h1         1 68U       0.116700
     32 H7           3.8530    -2.1710     1.1830 h1         1 68U       0.116700
     33 H8           4.2690     1.3410    -2.4720 h1         1 68U       0.055033
     34 H9           3.6450     2.6920    -1.4830 h1         1 68U       0.055033
     35 H10          5.3030     2.1100    -1.2450 h1         1 68U       0.055033
     36 H11         -1.8170     2.4530     0.0690 hn         1 68U       0.344500
     37 H12         -5.9040    -1.7900     0.1980 ha         1 68U       0.130000
     38 H13         -5.9740     0.7070     0.3170 ha         1 68U       0.156000
     39 H14         -0.4190    -3.7170    -0.3470 h4         1 68U       0.028100
     40 H15          1.5620     1.5390    -1.9930 ha         1 68U       0.127000
     41 H16         -0.6230     0.3800    -1.8430 ha         1 68U       0.126000
     42 O20          5.6090    -0.9750    -0.6910 o          1 68U      -0.519000
@<TRIPOS>BOND
     1     1    14 1   
     2     1    26 1   
     3     1    27 1   
     4     1    28 1   
     5     2     3 1   
     6     2    14 1   
     7     2    15 2   
     8     3    16 ar  
     9     3    18 ar  
    10     4     5 ar  
    11     4    16 ar  
    12     4    21 ar  
    13     5     6 ar  
    14     5    17 ar  
    15     6    19 ar  
    16     6    29 1   
    17     7     8 ar  
    18     7    21 1   
    19     7    25 ar  
    20     8     9 ar  
    21     8    30 1   
    22     9    10 1   
    23     9    13 ar  
    24    10    22 1   
    25    10    31 1   
    26    10    32 1   
    27    11    12 1   
    28    11    13 1   
    29    11    22 1   
    30    12    33 1   
    31    12    34 1   
    32    12    35 1   
    33    13    24 ar  
    34    14    36 1   
    35    17    18 ar  
    36    17    37 1   
    37    18    38 1   
    38    19    20 ar  
    39    20    21 ar  
    40    20    39 1   
    41    22    23 2   
    42    22    42 2   
    43    24    25 ar  
    44    24    40 1   
    45    25    41 1   
@<TRIPOS>SUBSTRUCTURE
     1 68U         1 TEMP              0 ****  ****    0 ROOT
