@<TRIPOS>MOLECULE
68V
   30    31     1     0     0
SMALL
No Charge or Current Charge


@<TRIPOS>ATOM
      1 OAA         -5.0050     2.9430    -0.5100 o          1 68V      -0.715000
      2 CAO         -5.8230     2.0400    -0.4070 c          1 68V       0.711600
      3 OAC         -7.0310     2.2350    -0.4500 o          1 68V      -0.715000
      4 CAT         -5.3200     0.6160    -0.2190 ca         1 68V      -0.118600
      5 CAL         -3.9320     0.3390    -0.1640 ca         1 68V      -0.083000
      6 CAG         -6.2300    -0.4600    -0.0960 ca         1 68V      -0.096000
      7 CAE         -5.7650    -1.7720     0.0770 ca         1 68V      -0.127000
      8 CAF         -4.3880    -2.0300     0.1300 ca         1 68V      -0.183000
      9 CAS         -3.4590    -0.9830     0.0110 ca         1 68V      -0.069000
     10 NAN         -2.0790    -1.3280     0.0750 ns         1 68V      -0.156000
     11 CAP         -0.9150    -0.5730    -0.0030 c          1 68V       0.658100
     12 OAB         -0.8880     0.6420    -0.1560 o          1 68V      -0.583100
     13 NAM          0.2120    -1.3740     0.1150 ns         1 68V      -0.170000
     14 CAR          1.6030    -1.0800     0.0980 ca         1 68V       0.032000
     15 CAJ          2.4940    -2.1600     0.2490 ca         1 68V      -0.164000
     16 CAH          3.8850    -1.9530     0.2430 ca         1 68V      -0.055000
     17 CAQ          4.3960    -0.6550     0.0860 ca         1 68V      -0.061900
     18 Br           6.2860    -0.3680     0.0770 br         1 68V      -0.123100
     19 CAI          3.5200     0.4310    -0.0660 ca         1 68V      -0.055000
     20 CAK          2.1300     0.2220    -0.0600 ca         1 68V      -0.164000
     21 H2          -3.2350     1.1650    -0.2580 ha         1 68V       0.154000
     22 H3          -7.3030    -0.2810    -0.1350 ha         1 68V       0.130000
     23 H4          -6.4750    -2.5910     0.1700 ha         1 68V       0.087000
     24 H5          -4.0420    -3.0530     0.2650 ha         1 68V       0.079000
     25 H6          -1.9190    -2.3190     0.2030 hn         1 68V       0.129000
     26 H7           0.0080    -2.3570     0.2360 hn         1 68V       0.142000
     27 H8           2.1090    -3.1710     0.3720 ha         1 68V       0.135500
     28 H9           4.5620    -2.7960     0.3610 ha         1 68V       0.123000
     29 H10          3.9170     1.4370    -0.1880 ha         1 68V       0.123000
     30 H11          1.4830     1.0850    -0.1790 ha         1 68V       0.135500
@<TRIPOS>BOND
     1     1     2 1   
     2     2     3 1   
     3     2     4 1   
     4     4     5 ar  
     5     4     6 ar  
     6     5     9 ar  
     7     5    21 1   
     8     6     7 ar  
     9     6    22 1   
    10     7     8 ar  
    11     7    23 1   
    12     8     9 ar  
    13     8    24 1   
    14     9    10 1   
    15    10    11 1   
    16    10    25 1   
    17    11    12 2   
    18    11    13 1   
    19    13    14 1   
    20    13    26 1   
    21    14    15 ar  
    22    14    20 ar  
    23    15    16 ar  
    24    15    27 1   
    25    16    17 ar  
    26    16    28 1   
    27    17    18 1   
    28    17    19 ar  
    29    19    20 ar  
    30    19    29 1   
    31    20    30 1   
@<TRIPOS>SUBSTRUCTURE
     1 68V         1 TEMP              0 ****  ****    0 ROOT
