@<TRIPOS>MOLECULE
68V
   30    31     1     0     0
SMALL
abcg2


@<TRIPOS>ATOM
      1 OAA         -4.7010     2.9070     0.3120 o          1 68V      -0.715000
      2 CAO         -5.5800     2.0830    -0.0040 c          1 68V       0.711600
      3 OAC         -6.7760     2.3260    -0.2560 o          1 68V      -0.715000
      4 CAT         -5.1500     0.6210    -0.0910 ca         1 68V      -0.118600
      5 CAL         -3.8230     0.2740     0.1440 ca         1 68V      -0.083000
      6 CAG         -6.0770    -0.3750    -0.3870 ca         1 68V      -0.096000
      7 CAE         -5.6760    -1.7020    -0.4440 ca         1 68V      -0.127000
      8 CAF         -4.3510    -2.0450    -0.2260 ca         1 68V      -0.183000
      9 CAS         -3.4130    -1.0550     0.0680 ca         1 68V      -0.069000
     10 NAN         -2.0990    -1.4660     0.3350 ns         1 68V      -0.156000
     11 CAP         -0.9600    -0.7760     0.0250 c          1 68V       0.658100
     12 OAB         -0.9540     0.3130    -0.5190 o          1 68V      -0.583100
     13 NAM          0.1740    -1.4490     0.4050 ns         1 68V      -0.170000
     14 CAR          1.5020    -1.0890     0.2010 ca         1 68V       0.032000
     15 CAJ          2.4680    -2.0130     0.6120 ca         1 68V      -0.164000
     16 CAH          3.8190    -1.7580     0.4620 ca         1 68V      -0.055000
     17 CAQ          4.2250    -0.5610    -0.1080 ca         1 68V      -0.061900
     18 BR           6.0660    -0.1990    -0.3230 br         1 68V      -0.123100
     19 CAI          3.2850     0.3680    -0.5210 ca         1 68V      -0.055000
     20 CAK          1.9290     0.1130    -0.3680 ca         1 68V      -0.164000
     21 H2          -3.1210     1.0530     0.3960 ha         1 68V       0.154000
     22 H3          -7.1100    -0.1120    -0.5670 ha         1 68V       0.130000
     23 H4          -6.3950    -2.4790    -0.6680 ha         1 68V       0.087000
     24 H5          -4.0410    -3.0820    -0.2840 ha         1 68V       0.079000
     25 H6          -2.0020    -2.4320     0.6070 hn         1 68V       0.129000
     26 H7           0.0480    -2.3290     0.8840 hn         1 68V       0.142000
     27 H8           2.1610    -2.9520     1.0560 ha         1 68V       0.135500
     28 H9           4.5360    -2.4980     0.7920 ha         1 68V       0.123000
     29 H10          3.5900     1.3060    -0.9650 ha         1 68V       0.123000
     30 H11          1.2240     0.8590    -0.6920 ha         1 68V       0.135500
@<TRIPOS>BOND
     1     1     2 1   
     2     2     3 1   
     3     2     4 1   
     4     4     5 ar  
     5     4     6 ar  
     6     5     9 ar  
     7     5    21 1   
     8     6     7 ar  
     9     6    22 1   
    10     7     8 ar  
    11     7    23 1   
    12     8     9 ar  
    13     8    24 1   
    14     9    10 1   
    15    10    11 1   
    16    10    25 1   
    17    11    12 2   
    18    11    13 1   
    19    13    14 1   
    20    13    26 1   
    21    14    15 ar  
    22    14    20 ar  
    23    15    16 ar  
    24    15    27 1   
    25    16    17 ar  
    26    16    28 1   
    27    17    18 1   
    28    17    19 ar  
    29    19    20 ar  
    30    19    29 1   
    31    20    30 1   
@<TRIPOS>SUBSTRUCTURE
     1 68V         1 TEMP              0 ****  ****    0 ROOT
