@<TRIPOS>MOLECULE
68W
   40    42     1     0     0
SMALL
bcc


@<TRIPOS>ATOM
      1 OAA          5.5270     2.4470    -0.2880 o          1 68W      -0.821300
      2 CAS          6.2080     1.4040    -0.3090 c          1 68W       0.922200
      3 OAC          7.4500     1.3270    -0.3510 o          1 68W      -0.821300
      4 CAW          5.4430     0.0840    -0.2780 ca         1 68W      -0.118600
      5 CAO          4.0520     0.0900    -0.2350 ca         1 68W      -0.101000
      6 CAK          6.1230    -1.1290    -0.3040 ca         1 68W      -0.116000
      7 CAG          5.4150    -2.3220    -0.2900 ca         1 68W      -0.145000
      8 CAI          4.0310    -2.3170    -0.2320 ca         1 68W      -0.202000
      9 CAU          3.3380    -1.1070    -0.2010 ca         1 68W       0.024600
     10 NAQ          1.9370    -1.1620    -0.1900 ns         1 68W      -0.484100
     11 CAT          1.0980    -0.2770     0.4290 c          1 68W       0.791100
     12 OAB          1.4790     0.7100     1.0320 o          1 68W      -0.586100
     13 NAR         -0.2210    -0.6250     0.2890 ns         1 68W      -0.500100
     14 CAV         -1.3390     0.0610     0.7620 ca         1 68W       0.104600
     15 CAP         -2.5620    -0.2420     0.1600 ca         1 68W      -0.188000
     16 CAJ         -1.3080     0.9940     1.8010 ca         1 68W      -0.140000
     17 CAH         -2.4900     1.6060     2.1960 ca         1 68W      -0.106000
     18 CAN         -3.7000     1.3060     1.5940 ca         1 68W      -0.157000
     19 CAY         -3.7460     0.3630     0.5660 cp         1 68W      -0.017000
     20 CAX         -5.0250     0.0150    -0.0860 cp         1 68W      -0.022000
     21 CAL         -5.9870     0.9960    -0.3340 ca         1 68W      -0.119000
     22 CAE         -7.1910     0.6740    -0.9430 ca         1 68W      -0.132000
     23 CAD         -7.4570    -0.6370    -1.3150 ca         1 68W      -0.134000
     24 CAF         -6.5090    -1.6230    -1.0720 ca         1 68W      -0.132000
     25 CAM         -5.3050    -1.2990    -0.4640 ca         1 68W      -0.119000
     26 H2           3.5360     1.0370    -0.2410 ha         1 68W       0.173000
     27 H3           7.2040    -1.1380    -0.3420 ha         1 68W       0.148000
     28 H4           5.9420    -3.2680    -0.3180 ha         1 68W       0.104000
     29 H5           3.4840    -3.2520    -0.2080 ha         1 68W       0.096000
     30 H6           1.5420    -2.0300    -0.5180 hn         1 68W       0.295500
     31 H7          -0.4300    -1.3930    -0.3310 hn         1 68W       0.305500
     32 H8          -2.5810    -0.9500    -0.6620 ha         1 68W       0.125000
     33 H9          -0.3870     1.2410     2.3020 ha         1 68W       0.173000
     34 H10         -2.4590     2.3240     3.0050 ha         1 68W       0.130000
     35 H11         -4.6070     1.7850     1.9390 ha         1 68W       0.126000
     36 H12         -5.7860     2.0260    -0.0670 ha         1 68W       0.133000
     37 H13         -7.9190     1.4510    -1.1340 ha         1 68W       0.125500
     38 H14         -8.3960    -0.8910    -1.7910 ha         1 68W       0.124000
     39 H15         -6.7100    -2.6490    -1.3500 ha         1 68W       0.125500
     40 H16         -4.5850    -2.0840    -0.2640 ha         1 68W       0.133000
@<TRIPOS>BOND
     1     1     2 1   
     2     2     3 1   
     3     2     4 1   
     4     4     5 ar  
     5     4     6 ar  
     6     5     9 ar  
     7     5    26 1   
     8     6     7 ar  
     9     6    27 1   
    10     7     8 ar  
    11     7    28 1   
    12     8     9 ar  
    13     8    29 1   
    14     9    10 1   
    15    10    11 1   
    16    10    30 1   
    17    11    12 2   
    18    11    13 1   
    19    13    14 1   
    20    13    31 1   
    21    14    15 ar  
    22    14    16 ar  
    23    15    19 ar  
    24    15    32 1   
    25    16    17 ar  
    26    16    33 1   
    27    17    18 ar  
    28    17    34 1   
    29    18    19 ar  
    30    18    35 1   
    31    19    20 1   
    32    20    21 ar  
    33    20    25 ar  
    34    21    22 ar  
    35    21    36 1   
    36    22    23 ar  
    37    22    37 1   
    38    23    24 ar  
    39    23    38 1   
    40    24    25 ar  
    41    24    39 1   
    42    25    40 1   
@<TRIPOS>SUBSTRUCTURE
     1 68W         1 TEMP              0 ****  ****    0 ROOT
