@<TRIPOS>MOLECULE
68W
   40    42     1     0     0
SMALL
No Charge or Current Charge


@<TRIPOS>ATOM
      1 OAA          6.2420     1.6010     1.5440 o          1 68W      -0.716000
      2 CAS          6.6880     0.6580     0.9040 c          1 68W       0.711600
      3 OAC          7.8870     0.4420     0.7950 o          1 68W      -0.716000
      4 CAW          5.7110    -0.2840     0.2140 ca         1 68W      -0.118600
      5 CAO          4.3130    -0.0760     0.3110 ca         1 68W      -0.083000
      6 CAK          6.1810    -1.3870    -0.5360 ca         1 68W      -0.098000
      7 CAG          5.2790    -2.2540    -1.1710 ca         1 68W      -0.127000
      8 CAI          3.8980    -2.0350    -1.0660 ca         1 68W      -0.184000
      9 CAU          3.4010    -0.9490    -0.3270 ca         1 68W      -0.068000
     10 NAQ          1.9860    -0.7960    -0.2700 ns         1 68W      -0.158000
     11 CAT          1.1650     0.1370     0.3520 c          1 68W       0.657100
     12 OAB          1.5710     1.0790     1.0230 o          1 68W      -0.586100
     13 NAR         -0.1750    -0.1360     0.1160 ns         1 68W      -0.174000
     14 CAV         -1.3720     0.5120     0.5250 ca         1 68W       0.012000
     15 CAP         -2.5900    -0.0490     0.0950 ca         1 68W      -0.170000
     16 CAJ         -1.4010     1.6730     1.3270 ca         1 68W      -0.122000
     17 CAH         -2.6280     2.2540     1.6840 ca         1 68W      -0.088000
     18 CAN         -3.8340     1.6850     1.2470 ca         1 68W      -0.139000
     19 CAY         -3.8410     0.5200     0.4430 cp         1 68W      -0.017000
     20 CAX         -5.1280    -0.0920    -0.0240 cp         1 68W      -0.022000
     21 CAL         -6.2480     0.7160    -0.3490 ca         1 68W      -0.101000
     22 CAE         -7.4550     0.1430    -0.7870 ca         1 68W      -0.114000
     23 CAD         -7.5680    -1.2500    -0.9090 ca         1 68W      -0.116000
     24 CAF         -6.4740    -2.0710    -0.5930 ca         1 68W      -0.114000
     25 CAM         -5.2670    -1.4970    -0.1550 ca         1 68W      -0.101000
     26 H2           3.9540     0.7700     0.8870 ha         1 68W       0.155000
     27 H3           7.2490    -1.5740    -0.6300 ha         1 68W       0.130000
     28 H4           5.6530    -3.0990    -1.7450 ha         1 68W       0.086000
     29 H5           3.2110    -2.7160    -1.5640 ha         1 68W       0.078000
     30 H6           1.4840    -1.5080    -0.7830 hn         1 68W       0.129000
     31 H7          -0.3340    -0.9530    -0.4590 hn         1 68W       0.139000
     32 H8          -2.5660    -0.9350    -0.5330 ha         1 68W       0.107000
     33 H9          -0.4890     2.1410     1.6820 ha         1 68W       0.155000
     34 H10         -2.6450     3.1480     2.3050 ha         1 68W       0.112000
     35 H11         -4.7720     2.1450     1.5480 ha         1 68W       0.108000
     36 H12         -6.1770     1.7980    -0.2740 ha         1 68W       0.115000
     37 H13         -8.3000     0.7810    -1.0350 ha         1 68W       0.107500
     38 H14         -8.5020    -1.6940    -1.2480 ha         1 68W       0.106000
     39 H15         -6.5610    -3.1510    -0.6830 ha         1 68W       0.107500
     40 H16         -4.4370    -2.1510     0.0970 ha         1 68W       0.115000
@<TRIPOS>BOND
     1     1     2 1   
     2     2     3 1   
     3     2     4 1   
     4     4     5 ar  
     5     4     6 ar  
     6     5     9 ar  
     7     5    26 1   
     8     6     7 ar  
     9     6    27 1   
    10     7     8 ar  
    11     7    28 1   
    12     8     9 ar  
    13     8    29 1   
    14     9    10 1   
    15    10    11 1   
    16    10    30 1   
    17    11    12 2   
    18    11    13 1   
    19    13    14 1   
    20    13    31 1   
    21    14    15 ar  
    22    14    16 ar  
    23    15    19 ar  
    24    15    32 1   
    25    16    17 ar  
    26    16    33 1   
    27    17    18 ar  
    28    17    34 1   
    29    18    19 ar  
    30    18    35 1   
    31    19    20 1   
    32    20    21 ar  
    33    20    25 ar  
    34    21    22 ar  
    35    21    36 1   
    36    22    23 ar  
    37    22    37 1   
    38    23    24 ar  
    39    23    38 1   
    40    24    25 ar  
    41    24    39 1   
    42    25    40 1   
@<TRIPOS>SUBSTRUCTURE
     1 68W         1 TEMP              0 ****  ****    0 ROOT
