@<TRIPOS>MOLECULE
68X
   68    68     1     0     0
SMALL
No Charge or Current Charge


@<TRIPOS>ATOM
      1 C4          14.3180    -0.6020    23.6180 c6         1 68X       0.097300
      2 C5          14.0600    -1.5250    24.8540 c6         1 68X       0.154300
      3 C6          14.3660    -3.0490    24.6080 c3         1 68X       0.133600
      4 O6          13.9910    -3.8900    25.7160 oh         1 68X      -0.710000
      5 C2          11.7950    -0.6990    23.1010 c6         1 68X       0.099700
      6 N2          11.4750     0.7100    23.4600 ns         1 68X      -0.481900
      7 C01         10.4970     1.3820    21.2770 ce         1 68X      -0.272200
      8 C1          11.6830    -1.6630    24.3300 c6         1 68X       0.386300
      9 O01         10.4620    -1.5020    25.0220 oh         1 68X      -0.625000
     10 C02          9.4650     0.5400    21.0010 c2         1 68X      -0.178200
     11 C03          8.5720    -0.2320    21.9620 c3         1 68X      -0.057200
     12 C3          13.2400    -0.8580    22.5210 c6         1 68X       0.151300
     13 O03         13.4870     0.0190    21.4130 oh         1 68X      -0.649000
     14 C04          8.0590    -1.5910    21.4170 c3         1 68X      -0.065400
     15 O4          15.6420    -0.7730    23.0650 oh         1 68X      -0.727000
     16 C05          9.0900    -2.7480    21.4000 c3         1 68X      -0.076400
     17 O5          12.6870    -1.3480    25.3050 os         1 68X      -0.471000
     18 C06         10.1580    -2.6670    20.2820 c3         1 68X      -0.076400
     19 C07         11.2450    -3.7520    20.4160 c3         1 68X      -0.041200
     20 C7          11.1110     1.7180    22.6000 c          1 68X       0.617300
     21 O7          11.3520     2.8750    22.9040 o          1 68X      -0.605100
     22 C08         12.3270    -3.6080    19.3670 c2         1 68X      -0.228200
     23 C09         12.7130    -4.5680    18.5140 c2         1 68X      -0.212200
     24 C10         13.8080    -4.4210    17.4780 c3         1 68X      -0.039200
     25 C11         15.2190    -4.3330    18.1010 c3         1 68X      -0.073400
     26 C12         15.6120    -5.5790    18.9330 c3         1 68X      -0.072400
     27 C13         17.0490    -5.5360    19.5110 c3         1 68X      -0.073400
     28 C14         17.3560    -4.3570    20.4690 c3         1 68X      -0.073400
     29 C15         16.4440    -4.2840    21.7110 c3         1 68X      -0.094100
     30 H1          14.1990     0.4380    23.9620 h1         1 68X       0.064700
     31 H2          14.7180    -1.1940    25.6700 h1         1 68X       0.085700
     32 H3          13.8550    -3.3840    23.6970 h1         1 68X       0.029700
     33 H4          15.4440    -3.1490    24.4210 h1         1 68X       0.029700
     34 H5          14.2710    -4.8090    25.4960 ho         1 68X       0.504000
     35 H6          11.0950    -1.0440    22.3390 h1         1 68X       0.094700
     36 H7          11.7940     1.0280    24.3660 hn         1 68X       0.321500
     37 H8          10.9020     1.9870    20.4680 ha         1 68X       0.200000
     38 H9          11.7860    -2.7090    24.0040 h2         1 68X       0.028700
     39 H10         10.7320    -1.5450    25.9630 ho         1 68X       0.462000
     40 H11          9.1310     0.4590    19.9640 ha         1 68X       0.169000
     41 H12          9.0430    -0.3840    22.9370 hc         1 68X       0.059200
     42 H13          7.6930     0.3890    22.1720 hc         1 68X       0.059200
     43 H14         13.3460    -1.8960    22.1750 h1         1 68X       0.043700
     44 H15         14.4690     0.0630    21.3580 ho         1 68X       0.462000
     45 H16          7.2240    -1.9060    22.0550 hc         1 68X       0.038700
     46 H17          7.6360    -1.4560    20.4130 hc         1 68X       0.038700
     47 H18         16.2860    -0.3700    23.6950 ho         1 68X       0.515000
     48 H19          8.5440    -3.6920    21.2800 hc         1 68X       0.038200
     49 H20          9.5780    -2.8050    22.3810 hc         1 68X       0.038200
     50 H21         10.6450    -1.6880    20.2870 hc         1 68X       0.043200
     51 H22          9.6660    -2.7660    19.3060 hc         1 68X       0.043200
     52 H23         10.7760    -4.7420    20.3530 hc         1 68X       0.036700
     53 H24         11.6980    -3.6840    21.4120 hc         1 68X       0.036700
     54 H25         12.8120    -2.6290    19.3500 ha         1 68X       0.169000
     55 H26         12.2360    -5.5510    18.5320 ha         1 68X       0.162000
     56 H27         13.6340    -3.5160    16.8830 hc         1 68X       0.045200
     57 H28         13.7750    -5.2610    16.7720 hc         1 68X       0.045200
     58 H29         15.9520    -4.1920    17.2980 hc         1 68X       0.040700
     59 H30         15.2650    -3.4380    18.7330 hc         1 68X       0.040700
     60 H31         14.8970    -5.7160    19.7540 hc         1 68X       0.036700
     61 H32         15.5230    -6.4680    18.2980 hc         1 68X       0.036700
     62 H33         17.2370    -6.4770    20.0430 hc         1 68X       0.036200
     63 H34         17.7630    -5.5060    18.6790 hc         1 68X       0.036200
     64 H35         18.3950    -4.4510    20.8070 hc         1 68X       0.037200
     65 H36         17.2990    -3.4080    19.9220 hc         1 68X       0.037200
     66 H37         16.7880    -3.4920    22.3840 hc         1 68X       0.032033
     67 H38         15.4080    -4.0600    21.4280 hc         1 68X       0.032033
     68 H39         16.4590    -5.2330    22.2610 hc         1 68X       0.032033
@<TRIPOS>BOND
     1     1     2 1   
     2     1    12 1   
     3     1    15 1   
     4     1    30 1   
     5     2     3 1   
     6     2    17 1   
     7     2    31 1   
     8     3     4 1   
     9     3    32 1   
    10     3    33 1   
    11     4    34 1   
    12     5     6 1   
    13     5     8 1   
    14     5    12 1   
    15     5    35 1   
    16     6    20 1   
    17     6    36 1   
    18     7    10 2   
    19     7    20 1   
    20     7    37 1   
    21     8     9 1   
    22     8    17 1   
    23     8    38 1   
    24     9    39 1   
    25    10    11 1   
    26    10    40 1   
    27    11    14 1   
    28    11    41 1   
    29    11    42 1   
    30    12    13 1   
    31    12    43 1   
    32    13    44 1   
    33    14    16 1   
    34    14    45 1   
    35    14    46 1   
    36    15    47 1   
    37    16    18 1   
    38    16    48 1   
    39    16    49 1   
    40    18    19 1   
    41    18    50 1   
    42    18    51 1   
    43    19    22 1   
    44    19    52 1   
    45    19    53 1   
    46    20    21 2   
    47    22    23 2   
    48    22    54 1   
    49    23    24 1   
    50    23    55 1   
    51    24    25 1   
    52    24    56 1   
    53    24    57 1   
    54    25    26 1   
    55    25    58 1   
    56    25    59 1   
    57    26    27 1   
    58    26    60 1   
    59    26    61 1   
    60    27    28 1   
    61    27    62 1   
    62    27    63 1   
    63    28    29 1   
    64    28    64 1   
    65    28    65 1   
    66    29    66 1   
    67    29    67 1   
    68    29    68 1   
@<TRIPOS>SUBSTRUCTURE
     1 68X         1 TEMP              0 ****  ****    0 ROOT
