@<TRIPOS>MOLECULE
68X
   68    68     1     0     0
SMALL
abcg2


@<TRIPOS>ATOM
      1 C4          14.4780    -1.0790    24.3590 c6         1 68X       0.097300
      2 C5          13.9040    -2.0580    25.3950 c6         1 68X       0.154300
      3 C6          14.3270    -3.5060    25.1640 c3         1 68X       0.133600
      4 O6          13.6410    -4.3090    26.0950 oh         1 68X      -0.710000
      5 C2          12.2320    -1.0710    23.2230 c6         1 68X       0.099700
      6 N2          11.8350     0.2540    23.6290 ns         1 68X      -0.481900
      7 C01         11.3810     1.0350    21.3570 ce         1 68X      -0.272200
      8 C1          11.8010    -2.1040    24.2620 c6         1 68X       0.386300
      9 O01         10.4570    -1.9590    24.5260 oh         1 68X      -0.625000
     10 C02         10.2690     0.5960    20.7740 c2         1 68X      -0.178200
     11 C03          8.9980     0.1840    21.4470 c3         1 68X      -0.057200
     12 C3          13.7460    -1.1960    23.0260 c6         1 68X       0.151300
     13 O03         14.1520    -0.2030    22.1230 oh         1 68X      -0.649000
     14 C04          8.3170    -1.0420    20.8330 c3         1 68X      -0.065400
     15 O4          15.8460    -1.3010    24.1040 oh         1 68X      -0.727000
     16 C05          9.0240    -2.3750    21.0710 c3         1 68X      -0.076400
     17 O5          12.5000    -1.8920    25.4690 os         1 68X      -0.471000
     18 C06         10.2420    -2.6410    20.1940 c3         1 68X      -0.076400
     19 C07         10.9000    -3.9790    20.5290 c3         1 68X      -0.041200
     20 C7          11.5430     1.2920    22.8200 c          1 68X       0.617300
     21 O7          11.4110     2.4280    23.2550 o          1 68X      -0.605100
     22 C08         12.1120    -4.2680    19.6990 c2         1 68X      -0.228200
     23 C09         12.2470    -5.3320    18.9120 c2         1 68X      -0.212200
     24 C10         13.4120    -5.6900    18.0380 c3         1 68X      -0.039200
     25 C11         14.6830    -4.8620    18.1880 c3         1 68X      -0.073400
     26 C12         15.4190    -5.0740    19.5070 c3         1 68X      -0.072400
     27 C13         16.8230    -4.4710    19.5270 c3         1 68X      -0.073400
     28 C14         16.8940    -2.9770    19.2200 c3         1 68X      -0.073400
     29 C15         16.0530    -2.1140    20.1500 c3         1 68X      -0.094100
     30 H1          14.3230    -0.0590    24.7400 h1         1 68X       0.064700
     31 H2          14.2670    -1.7670    26.3860 h1         1 68X       0.085700
     32 H3          14.1300    -3.8320    24.1340 h1         1 68X       0.029700
     33 H4          15.4120    -3.5610    25.3000 h1         1 68X       0.029700
     34 H5          13.9520    -5.2130    25.9910 ho         1 68X       0.504000
     35 H6          11.7420    -1.3110    22.2770 h1         1 68X       0.094700
     36 H7          11.9650     0.4980    24.6020 hn         1 68X       0.321500
     37 H8          12.2160     1.3510    20.7420 ha         1 68X       0.200000
     38 H9          12.0230    -3.1050    23.8620 h2         1 68X       0.028700
     39 H10         10.1260    -2.7610    24.9440 ho         1 68X       0.462000
     40 H11         10.2550     0.5640    19.6880 ha         1 68X       0.169000
     41 H12          9.1560     0.0220    22.5170 hc         1 68X       0.059200
     42 H13          8.3000     1.0260    21.3700 hc         1 68X       0.059200
     43 H14         13.9360    -2.1980    22.6080 h1         1 68X       0.043700
     44 H15         15.1090    -0.2580    22.0290 ho         1 68X       0.462000
     45 H16          7.3130    -1.1030    21.2600 hc         1 68X       0.038700
     46 H17          8.1760    -0.8800    19.7590 hc         1 68X       0.038700
     47 H18         16.3620    -0.9550    24.8380 ho         1 68X       0.515000
     48 H19          8.3050    -3.1840    20.9070 hc         1 68X       0.038200
     49 H20          9.3140    -2.4430    22.1240 hc         1 68X       0.038200
     50 H21         10.9800    -1.8420    20.3060 hc         1 68X       0.043200
     51 H22          9.9440    -2.6320    19.1400 hc         1 68X       0.043200
     52 H23         10.1720    -4.7880    20.4160 hc         1 68X       0.036700
     53 H24         11.1830    -3.9650    21.5890 hc         1 68X       0.036700
     54 H25         12.9140    -3.5360    19.7720 ha         1 68X       0.169000
     55 H26         11.4170    -6.0350    18.8660 ha         1 68X       0.162000
     56 H27         13.0740    -5.6460    16.9960 hc         1 68X       0.045200
     57 H28         13.6540    -6.7460    18.2050 hc         1 68X       0.045200
     58 H29         15.3560    -5.1280    17.3660 hc         1 68X       0.040700
     59 H30         14.4540    -3.8010    18.0480 hc         1 68X       0.040700
     60 H31         14.8330    -4.6730    20.3370 hc         1 68X       0.036700
     61 H32         15.5020    -6.1490    19.6970 hc         1 68X       0.036700
     62 H33         17.2680    -4.6530    20.5110 hc         1 68X       0.036200
     63 H34         17.4500    -5.0070    18.8070 hc         1 68X       0.036200
     64 H35         17.9380    -2.6590    19.2800 hc         1 68X       0.037200
     65 H36         16.5900    -2.7950    18.1850 hc         1 68X       0.037200
     66 H37         16.2020    -1.0530    19.9410 hc         1 68X       0.032033
     67 H38         14.9870    -2.3180    20.0400 hc         1 68X       0.032033
     68 H39         16.3140    -2.2870    21.1960 hc         1 68X       0.032033
@<TRIPOS>BOND
     1     1     2 1   
     2     1    12 1   
     3     1    15 1   
     4     1    30 1   
     5     2     3 1   
     6     2    17 1   
     7     2    31 1   
     8     3     4 1   
     9     3    32 1   
    10     3    33 1   
    11     4    34 1   
    12     5     6 1   
    13     5     8 1   
    14     5    12 1   
    15     5    35 1   
    16     6    20 1   
    17     6    36 1   
    18     7    10 2   
    19     7    20 1   
    20     7    37 1   
    21     8     9 1   
    22     8    17 1   
    23     8    38 1   
    24     9    39 1   
    25    10    11 1   
    26    10    40 1   
    27    11    14 1   
    28    11    41 1   
    29    11    42 1   
    30    12    13 1   
    31    12    43 1   
    32    13    44 1   
    33    14    16 1   
    34    14    45 1   
    35    14    46 1   
    36    15    47 1   
    37    16    18 1   
    38    16    48 1   
    39    16    49 1   
    40    18    19 1   
    41    18    50 1   
    42    18    51 1   
    43    19    22 1   
    44    19    52 1   
    45    19    53 1   
    46    20    21 2   
    47    22    23 2   
    48    22    54 1   
    49    23    24 1   
    50    23    55 1   
    51    24    25 1   
    52    24    56 1   
    53    24    57 1   
    54    25    26 1   
    55    25    58 1   
    56    25    59 1   
    57    26    27 1   
    58    26    60 1   
    59    26    61 1   
    60    27    28 1   
    61    27    62 1   
    62    27    63 1   
    63    28    29 1   
    64    28    64 1   
    65    28    65 1   
    66    29    66 1   
    67    29    67 1   
    68    29    68 1   
@<TRIPOS>SUBSTRUCTURE
     1 68X         1 TEMP              0 ****  ****    0 ROOT
