@<TRIPOS>MOLECULE
68Y
   42    44     1     0     0
SMALL
abcg2


@<TRIPOS>ATOM
      1 CAJ          2.0590    -2.3010     3.3670 ca         1 68Y      -0.228000
      2 CAF          3.4570    -2.3470     3.4550 ca         1 68Y       0.287000
      3 NAE          4.2310    -2.4020     2.2880 nu         1 68Y      -0.926200
      4 CAD          5.2310    -1.3610     1.9770 c3         1 68Y       0.218500
      5 CAH          6.2750    -1.9420     1.0310 c3         1 68Y      -0.094100
      6 CAC          5.8550    -0.7950     3.2550 c3         1 68Y      -0.165400
      7 CAB          6.3930    -1.8550     4.1850 c          1 68Y       0.576000
      8 OAI          7.5960    -2.0570     4.3510 o          1 68Y      -0.565000
      9 NAA          5.4570    -2.5650     4.8600 ns         1 68Y      -0.142000
     10 CAG          4.0540    -2.4470     4.7220 ca         1 68Y      -0.092000
     11 CAM          3.2500    -2.5120     5.8570 ca         1 68Y      -0.085000
     12 CAL          1.8690    -2.4970     5.7630 ca         1 68Y      -0.150000
     13 CAK          1.2670    -2.3880     4.5070 ca         1 68Y       0.157100
     14 OAN         -0.0960    -2.3510     4.5040 os         1 68Y      -0.354100
     15 CAO         -0.8040    -2.3340     3.2530 c3         1 68Y       0.222600
     16 CAP         -2.2490    -2.0120     3.6010 c3         1 68Y      -0.086100
     17 CAQ         -0.6780    -3.6480     2.5140 ca         1 68Y      -0.124300
     18 CAR         -0.6470    -4.8590     3.2030 ca         1 68Y      -0.094500
     19 CAS         -0.5720    -6.0620     2.5100 ca         1 68Y      -0.110500
     20 CAT         -0.5330    -6.0670     1.1180 ca         1 68Y      -0.102000
     21 CAU         -0.5650    -4.8620     0.4250 ca         1 68Y      -0.110500
     22 CAV         -0.6330    -3.6590     1.1220 ca         1 68Y      -0.094500
     23 H1           1.6190    -2.2170     2.3850 ha         1 68Y       0.120000
     24 H2           3.6470    -2.5640     1.4790 hn         1 68Y       0.441000
     25 H3           4.7370    -0.5210     1.4730 h1         1 68Y       0.026700
     26 H4           6.9710    -1.1660     0.7100 hc         1 68Y       0.047700
     27 H5           6.8390    -2.7400     1.5200 hc         1 68Y       0.047700
     28 H6           5.7930    -2.3580     0.1440 hc         1 68Y       0.047700
     29 H7           6.6780    -0.1380     2.9820 hc         1 68Y       0.073200
     30 H8           5.1090    -0.2040     3.7910 hc         1 68Y       0.073200
     31 H9           5.8080    -3.2100     5.5560 hn         1 68Y       0.158000
     32 H10          3.7240    -2.5980     6.8270 ha         1 68Y       0.120000
     33 H11          1.2490    -2.5620     6.6470 ha         1 68Y       0.131000
     34 H12         -0.4000    -1.5320     2.6300 h1         1 68Y       0.046700
     35 H13         -2.3090    -1.0540     4.1180 hc         1 68Y       0.051033
     36 H14         -2.8440    -1.9580     2.6890 hc         1 68Y       0.051033
     37 H15         -2.6660    -2.7910     4.2420 hc         1 68Y       0.051033
     38 H16         -0.6710    -4.8590     4.2860 ha         1 68Y       0.116500
     39 H17         -0.5420    -6.9970     3.0560 ha         1 68Y       0.114500
     40 H18         -0.4730    -7.0050     0.5790 ha         1 68Y       0.115000
     41 H19         -0.5280    -4.8560    -0.6570 ha         1 68Y       0.114500
     42 H20         -0.6440    -2.7200     0.5810 ha         1 68Y       0.116500
@<TRIPOS>BOND
     1     1     2 ar  
     2     1    13 ar  
     3     1    23 1   
     4     2     3 1   
     5     2    10 ar  
     6     3     4 1   
     7     3    24 1   
     8     4     5 1   
     9     4     6 1   
    10     4    25 1   
    11     5    26 1   
    12     5    27 1   
    13     5    28 1   
    14     6     7 1   
    15     6    29 1   
    16     6    30 1   
    17     7     8 2   
    18     7     9 1   
    19     9    10 1   
    20     9    31 1   
    21    10    11 ar  
    22    11    12 ar  
    23    11    32 1   
    24    12    13 ar  
    25    12    33 1   
    26    13    14 1   
    27    14    15 1   
    28    15    16 1   
    29    15    17 1   
    30    15    34 1   
    31    16    35 1   
    32    16    36 1   
    33    16    37 1   
    34    17    18 ar  
    35    17    22 ar  
    36    18    19 ar  
    37    18    38 1   
    38    19    20 ar  
    39    19    39 1   
    40    20    21 ar  
    41    20    40 1   
    42    21    22 ar  
    43    21    41 1   
    44    22    42 1   
@<TRIPOS>SUBSTRUCTURE
     1 68Y         1 TEMP              0 ****  ****    0 ROOT
