@<TRIPOS>MOLECULE
68Y
   42    44     1     0     0
SMALL
No Charge or Current Charge


@<TRIPOS>ATOM
      1 CAJ          2.0430    -2.2070     3.3740 ca         1 68Y      -0.228000
      2 CAF          3.4410    -2.2440     3.4770 ca         1 68Y       0.287000
      3 NAE          4.1760    -2.1760     2.2840 nu         1 68Y      -0.926200
      4 CAD          5.2810    -1.2570     1.9690 c3         1 68Y       0.218500
      5 CAH          6.2240    -1.9230     0.9460 c3         1 68Y      -0.094100
      6 CAC          5.9990    -0.7870     3.2410 c3         1 68Y      -0.165400
      7 CAB          6.4350    -1.9810     4.0850 c          1 68Y       0.576000
      8 OAI          7.5820    -2.4150     4.0760 o          1 68Y      -0.565000
      9 NAA          5.4570    -2.5010     4.9090 ns         1 68Y      -0.142000
     10 CAG          4.0480    -2.4280     4.7490 ca         1 68Y      -0.092000
     11 CAM          3.2400    -2.5760     5.8890 ca         1 68Y      -0.085000
     12 CAL          1.8420    -2.5250     5.7750 ca         1 68Y      -0.150000
     13 CAK          1.2370    -2.3440     4.5230 ca         1 68Y       0.157100
     14 OAN         -0.1430    -2.3060     4.4800 os         1 68Y      -0.354100
     15 CAO         -0.8950    -2.3070     3.2510 c3         1 68Y       0.222600
     16 CAP         -2.3650    -2.0520     3.6260 c3         1 68Y      -0.086100
     17 CAQ         -0.7170    -3.6470     2.5300 ca         1 68Y      -0.124300
     18 CAR         -0.8240    -4.8660     3.2320 ca         1 68Y      -0.094500
     19 CAS         -0.6600    -6.0900     2.5610 ca         1 68Y      -0.110500
     20 CAT         -0.3910    -6.1070     1.1830 ca         1 68Y      -0.102000
     21 CAU         -0.2870    -4.8980     0.4750 ca         1 68Y      -0.110500
     22 CAV         -0.4510    -3.6730     1.1450 ca         1 68Y      -0.094500
     23 H1           1.5980    -2.0710     2.3950 ha         1 68Y       0.120000
     24 H2           3.6210    -2.4380     1.4690 hn         1 68Y       0.441000
     25 H3           4.8580    -0.3600     1.4940 h1         1 68Y       0.026700
     26 H4           7.0470    -1.2470     0.6850 hc         1 68Y       0.047700
     27 H5           6.6530    -2.8490     1.3450 hc         1 68Y       0.047700
     28 H6           5.6820    -2.1650     0.0240 hc         1 68Y       0.047700
     29 H7           6.8670    -0.1740     2.9740 hc         1 68Y       0.073200
     30 H8           5.2730    -0.1870     3.8020 hc         1 68Y       0.073200
     31 H9           5.7780    -3.1770     5.5890 hn         1 68Y       0.158000
     32 H10          3.6950    -2.7250     6.8670 ha         1 68Y       0.120000
     33 H11          1.2220    -2.6320     6.6610 ha         1 68Y       0.131000
     34 H12         -0.5650    -1.4850     2.6010 h1         1 68Y       0.046700
     35 H13         -2.4710    -1.0810     4.1260 hc         1 68Y       0.051033
     36 H14         -2.9910    -2.0430     2.7270 hc         1 68Y       0.051033
     37 H15         -2.7390    -2.8320     4.2990 hc         1 68Y       0.051033
     38 H16         -1.0320    -4.8650     4.3000 ha         1 68Y       0.116500
     39 H17         -0.7420    -7.0260     3.1110 ha         1 68Y       0.114500
     40 H18         -0.2640    -7.0550     0.6640 ha         1 68Y       0.115000
     41 H19         -0.0790    -4.9100    -0.5920 ha         1 68Y       0.114500
     42 H20         -0.3690    -2.7430     0.5860 ha         1 68Y       0.116500
@<TRIPOS>BOND
     1     1     2 ar  
     2     1    13 ar  
     3     1    23 1   
     4     2     3 1   
     5     2    10 ar  
     6     3     4 1   
     7     3    24 1   
     8     4     5 1   
     9     4     6 1   
    10     4    25 1   
    11     5    26 1   
    12     5    27 1   
    13     5    28 1   
    14     6     7 1   
    15     6    29 1   
    16     6    30 1   
    17     7     8 2   
    18     7     9 1   
    19     9    10 1   
    20     9    31 1   
    21    10    11 ar  
    22    11    12 ar  
    23    11    32 1   
    24    12    13 ar  
    25    12    33 1   
    26    13    14 1   
    27    14    15 1   
    28    15    16 1   
    29    15    17 1   
    30    15    34 1   
    31    16    35 1   
    32    16    36 1   
    33    16    37 1   
    34    17    18 ar  
    35    17    22 ar  
    36    18    19 ar  
    37    18    38 1   
    38    19    20 ar  
    39    19    39 1   
    40    20    21 ar  
    41    20    40 1   
    42    21    22 ar  
    43    21    41 1   
    44    22    42 1   
@<TRIPOS>SUBSTRUCTURE
     1 68Y         1 TEMP              0 ****  ****    0 ROOT
