@<TRIPOS>MOLECULE
691
   24    25     1     0     0
SMALL
No Charge or Current Charge


@<TRIPOS>ATOM
      1 O            3.0350     1.7950    -0.1900 o          1 691      -0.577100
      2 C1           3.3440     0.6110    -0.1210 c          1 691       0.608100
      3 C            4.8050     0.1710    -0.1110 c3         1 691      -0.181100
      4 N            2.4350    -0.4380    -0.0470 ns         1 691      -0.143000
      5 C2           1.0090    -0.4720    -0.0290 ca         1 691      -0.082000
      6 C10          0.1940     0.6790    -0.0910 ca         1 691      -0.099000
      7 C9          -1.2040     0.5190    -0.0660 ca         1 691      -0.053000
      8 C4          -1.7570    -0.7850     0.0200 ca         1 691       0.240000
      9 N1          -0.9730    -1.8870     0.0790 nb         1 691      -0.638000
     10 C3           0.3700    -1.7270     0.0540 ca         1 691       0.316900
     11 C8          -2.0430     1.6490    -0.1250 ca         1 691      -0.096000
     12 C7          -3.4380     1.4920    -0.1000 ca         1 691      -0.101000
     13 C6          -3.9960     0.2070    -0.0150 ca         1 691      -0.111000
     14 C5          -3.1590    -0.9210     0.0440 ca         1 691      -0.074000
     15 H1           4.9860    -0.4420     0.7790 hc         1 691       0.065033
     16 H2           4.9670    -0.5460    -0.9240 hc         1 691       0.065033
     17 H3           5.5010     1.0150    -0.1700 hc         1 691       0.065033
     18 H4           2.8670    -1.3520     0.0040 hn         1 691       0.151000
     19 H5           0.6150     1.6770    -0.1570 ha         1 691       0.154000
     20 H6           0.9580    -2.6430     0.1040 h4         1 691       0.011100
     21 H7          -1.6160     2.6480    -0.1910 ha         1 691       0.119000
     22 H8          -4.0850     2.3660    -0.1470 ha         1 691       0.115000
     23 H9          -5.0770     0.0840     0.0040 ha         1 691       0.116000
     24 H10         -3.5990    -1.9120     0.1100 ha         1 691       0.129000
@<TRIPOS>BOND
     1     1     2 2   
     2     2     3 1   
     3     2     4 1   
     4     3    15 1   
     5     3    16 1   
     6     3    17 1   
     7     4     5 1   
     8     4    18 1   
     9     5     6 ar  
    10     5    10 ar  
    11     6     7 ar  
    12     6    19 1   
    13     7     8 ar  
    14     7    11 ar  
    15     8     9 ar  
    16     8    14 ar  
    17     9    10 ar  
    18    10    20 1   
    19    11    12 ar  
    20    11    21 1   
    21    12    13 ar  
    22    12    22 1   
    23    13    14 ar  
    24    13    23 1   
    25    14    24 1   
@<TRIPOS>SUBSTRUCTURE
     1 691         1 TEMP              0 ****  ****    0 ROOT
