@<TRIPOS>MOLECULE
691
   24    25     1     0     0
SMALL
abcg2


@<TRIPOS>ATOM
      1 O            2.9460     1.7180    -0.1160 o          1 691      -0.577100
      2 C1           3.2860     0.5510    -0.0950 c          1 691       0.608100
      3 C            4.7340     0.1350    -0.0770 c3         1 691      -0.181100
      4 N            2.4010    -0.4840    -0.0650 ns         1 691      -0.143000
      5 C2           1.0110    -0.4400    -0.0570 ca         1 691      -0.082000
      6 C10          0.2340     0.6900    -0.0510 ca         1 691      -0.099000
      7 C9          -1.1710     0.5480    -0.0460 ca         1 691      -0.053000
      8 C4          -1.7260    -0.7520    -0.0500 ca         1 691       0.240000
      9 N1          -0.9390    -1.8550    -0.0550 nb         1 691      -0.638000
     10 C3           0.3470    -1.6980    -0.0580 ca         1 691       0.316900
     11 C8          -2.0400     1.6620    -0.0350 ca         1 691      -0.096000
     12 C7          -3.3960     1.4820    -0.0280 ca         1 691      -0.101000
     13 C6          -3.9450     0.1840    -0.0340 ca         1 691      -0.111000
     14 C5          -3.1270    -0.9120    -0.0450 ca         1 691      -0.074000
     15 H1           5.1630     0.3780     0.8950 hc         1 691       0.065033
     16 H2           4.8950    -0.9240    -0.2630 hc         1 691       0.065033
     17 H3           5.2810     0.7020    -0.8280 hc         1 691       0.065033
     18 H4           2.7990    -1.4080    -0.0490 hn         1 691       0.151000
     19 H5           0.6680     1.6770    -0.0500 ha         1 691       0.154000
     20 H6           0.9460    -2.6070    -0.0530 h4         1 691       0.011100
     21 H7          -1.6200     2.6600    -0.0290 ha         1 691       0.119000
     22 H8          -4.0560     2.3390    -0.0190 ha         1 691       0.115000
     23 H9          -5.0200     0.0590    -0.0290 ha         1 691       0.116000
     24 H10         -3.5300    -1.9170    -0.0490 ha         1 691       0.129000
@<TRIPOS>BOND
     1     1     2 2   
     2     2     3 1   
     3     2     4 1   
     4     3    15 1   
     5     3    16 1   
     6     3    17 1   
     7     4     5 1   
     8     4    18 1   
     9     5     6 ar  
    10     5    10 ar  
    11     6     7 ar  
    12     6    19 1   
    13     7     8 ar  
    14     7    11 ar  
    15     8     9 ar  
    16     8    14 ar  
    17     9    10 ar  
    18    10    20 1   
    19    11    12 ar  
    20    11    21 1   
    21    12    13 ar  
    22    12    22 1   
    23    13    14 ar  
    24    13    23 1   
    25    14    24 1   
@<TRIPOS>SUBSTRUCTURE
     1 691         1 TEMP              0 ****  ****    0 ROOT
