@<TRIPOS>MOLECULE
692
   27    28     1     0     0
SMALL
abcg2


@<TRIPOS>ATOM
      1 C14          0.8810     3.4820    -0.0500 c3         1 692       0.145100
      2 N13          0.0320     2.3550    -0.3650 n7         1 692      -0.865400
      3 C12         -0.5520     1.7420     0.8130 c3         1 692       0.198100
      4 C2          -1.3500     0.5370     0.4070 ca         1 692      -0.075300
      5 C3          -2.7360     0.6390     0.3470 ca         1 692      -0.109000
      6 C4          -3.5290    -0.4220    -0.0670 ca         1 692      -0.110000
      7 C5          -2.9270    -1.6150    -0.4380 ca         1 692      -0.107000
      8 C6          -1.5470    -1.7320    -0.3850 ca         1 692      -0.103000
      9 C1          -0.7390    -0.6730     0.0380 ca         1 692       0.022000
     10 C7           0.7050    -0.9290     0.1450 cc         1 692      -0.171000
     11 C11          1.2590    -2.0780     0.6450 cd         1 692      -0.135000
     12 C10          2.6750    -2.1050     0.5760 cd         1 692      -0.136000
     13 C9           3.1810    -0.9740     0.0140 cc         1 692      -0.273000
     14 S8           1.9510     0.1350    -0.4220 ss         1 692       0.278000
     15 H14          1.2360     3.9440    -0.9710 h1         1 692       0.030700
     16 H14A         0.3930     4.2590     0.5540 h1         1 692       0.030700
     17 H12          0.2620     1.4560     1.4870 h1         1 692       0.041200
     18 H12A        -1.1920     2.4330     1.3810 h1         1 692       0.041200
     19 H3          -3.2040     1.5710     0.6410 ha         1 692       0.108000
     20 H4          -4.6060    -0.3150    -0.1030 ha         1 692       0.113000
     21 H5          -3.5240    -2.4520    -0.7730 ha         1 692       0.113000
     22 H6          -1.0820    -2.6610    -0.6910 ha         1 692       0.117000
     23 H11          0.6650    -2.8780     1.0660 ha         1 692       0.130000
     24 H10          3.2810    -2.9240     0.9370 ha         1 692       0.130000
     25 H9           4.2180    -0.7250    -0.1530 h4         1 692       0.145000
     26 H121         1.7570     3.1380     0.5040 h1         1 692       0.030700
     27 H13         -0.7130     2.6500    -0.9850 hn         1 692       0.413000
@<TRIPOS>BOND
     1     1     2 1   
     2     1    15 1   
     3     1    16 1   
     4     1    26 1   
     5     2     3 1   
     6     2    27 1   
     7     3     4 1   
     8     3    17 1   
     9     3    18 1   
    10     4     5 ar  
    11     4     9 ar  
    12     5     6 ar  
    13     5    19 1   
    14     6     7 ar  
    15     6    20 1   
    16     7     8 ar  
    17     7    21 1   
    18     8     9 ar  
    19     8    22 1   
    20     9    10 1   
    21    10    11 2   
    22    10    14 1   
    23    11    12 1   
    24    11    23 1   
    25    12    13 2   
    26    12    24 1   
    27    13    14 1   
    28    13    25 1   
@<TRIPOS>SUBSTRUCTURE
     1 692         1 TEMP              0 ****  ****    0 ROOT
