@<TRIPOS>MOLECULE
692
   27    28     1     0     0
SMALL
No Charge or Current Charge


@<TRIPOS>ATOM
      1 C14          0.7310     3.7530     0.0080 c3         1 692       0.145100
      2 N13         -0.0720     2.5680    -0.3480 n7         1 692      -0.865400
      3 C12         -0.3980     1.6710     0.7780 c3         1 692       0.198100
      4 C2          -1.2530     0.4940     0.3110 ca         1 692      -0.075300
      5 C3          -2.6490     0.6760     0.2160 ca         1 692      -0.109000
      6 C4          -3.4860    -0.3830    -0.1740 ca         1 692      -0.110000
      7 C5          -2.9340    -1.6380    -0.4680 ca         1 692      -0.107000
      8 C6          -1.5470    -1.8310    -0.3760 ca         1 692      -0.103000
      9 C1          -0.6940    -0.7750     0.0080 ca         1 692       0.022000
     10 C7           0.7460    -1.0300     0.0770 cc         1 692      -0.171000
     11 C11          1.2450    -2.0760     0.8100 cd         1 692      -0.135000
     12 C10          2.6590    -2.1810     0.7160 cd         1 692      -0.136000
     13 C9           3.2290    -1.2270    -0.0940 cc         1 692      -0.273000
     14 S8           2.0080    -0.1530    -0.7810 ss         1 692       0.278000
     15 H14          0.9350     4.3620    -0.8820 h1         1 692       0.030700
     16 H14A         0.2010     4.3810     0.7370 h1         1 692       0.030700
     17 H12          0.5160     1.3010     1.2610 h1         1 692       0.041200
     18 H12A        -0.9560     2.2210     1.5490 h1         1 692       0.041200
     19 H3          -3.0890     1.6430     0.4510 ha         1 692       0.108000
     20 H4          -4.5610    -0.2300    -0.2430 ha         1 692       0.113000
     21 H5          -3.5800    -2.4600    -0.7680 ha         1 692       0.113000
     22 H6          -1.1280    -2.8060    -0.6120 ha         1 692       0.117000
     23 H11          0.6300    -2.7490     1.4010 ha         1 692       0.130000
     24 H10          3.2350    -2.9450     1.2320 ha         1 692       0.130000
     25 H9           4.2710    -1.0740    -0.3430 h4         1 692       0.145000
     26 H121         1.6930     3.4560     0.4450 h1         1 692       0.030700
     27 H13         -0.9580     2.8890    -0.7590 hn         1 692       0.413000
@<TRIPOS>BOND
     1     1     2 1   
     2     1    15 1   
     3     1    16 1   
     4     1    26 1   
     5     2     3 1   
     6     2    27 1   
     7     3     4 1   
     8     3    17 1   
     9     3    18 1   
    10     4     5 ar  
    11     4     9 ar  
    12     5     6 ar  
    13     5    19 1   
    14     6     7 ar  
    15     6    20 1   
    16     7     8 ar  
    17     7    21 1   
    18     8     9 ar  
    19     8    22 1   
    20     9    10 1   
    21    10    11 2   
    22    10    14 1   
    23    11    12 1   
    24    11    23 1   
    25    12    13 2   
    26    12    24 1   
    27    13    14 1   
    28    13    25 1   
@<TRIPOS>SUBSTRUCTURE
     1 692         1 TEMP              0 ****  ****    0 ROOT
