@<TRIPOS>MOLECULE
693
   51    54     1     0     0
SMALL
No Charge or Current Charge


@<TRIPOS>ATOM
      1 C1           5.9900     0.0300    -0.1660 ca         1 693      -0.291900
      2 C2           5.8540     1.4460    -0.2380 ca         1 693      -0.113000
      3 C3           4.5830     2.0580    -0.2180 ca         1 693      -0.127000
      4 C4           3.4610     1.2310    -0.1260 ca         1 693       0.013000
      5 C5           3.5690    -0.1490    -0.0540 ca         1 693      -0.023000
      6 C6           4.8220    -0.7750    -0.0730 ca         1 693      -0.092000
      7 C7           7.3400    -0.6030    -0.1880 ce         1 693       0.484400
      8 N1           7.4930    -1.8660    -0.6870 nv         1 693      -0.608700
      9 N2           8.4190     0.0820     0.2970 nv         1 693      -0.592800
     10 N3           2.1240     1.5690    -0.0870 na         1 693      -0.281900
     11 N4           2.3070    -0.7160     0.0330 nc         1 693      -0.341600
     12 C8           1.4630     0.3670     0.0110 cc         1 693       0.277500
     13 C9           0.0680     0.3850     0.0650 cd         1 693      -0.289200
     14 C10         -0.5450    -0.9170     0.1750 cd         1 693      -0.060000
     15 C11         -1.9210    -1.0200     0.2670 cc         1 693      -0.102200
     16 CVX         -2.6280    -2.3620     0.4160 c3         1 693      -0.119500
     17 CWX         -2.3920    -3.0310     1.8010 c          1 693       0.744000
     18 OXX         -3.3520    -3.1550     2.5500 o          1 693      -0.736000
     19 OYX         -1.2510    -3.3340     2.1280 o          1 693      -0.736000
     20 C6X         -2.3030    -3.3250    -0.7690 c3         1 693      -0.160400
     21 C7X         -3.2620    -4.5370    -0.7670 c          1 693       0.733000
     22 O8X         -4.3350    -4.4270    -1.3410 o          1 693      -0.767500
     23 O9X         -2.9210    -5.5500    -0.1750 o          1 693      -0.767500
     24 C12         -2.7340     0.1700     0.2120 cc         1 693      -0.040000
     25 C13         -2.2180     1.4440     0.0300 cd         1 693      -0.274400
     26 C14         -0.7400     1.6400     0.0330 c          1 693       0.581500
     27 O6          -0.2360     2.7620     0.0470 o          1 693      -0.773100
     28 C1B         -3.1370     2.6130     0.0440 ca         1 693       0.020200
     29 C2B         -2.9940     3.7110    -0.8460 ca         1 693       0.183000
     30 C3B         -3.8880     4.7960    -0.8010 ca         1 693      -0.180000
     31 C4B         -4.9430     4.8060     0.1240 ca         1 693      -0.130000
     32 C5B         -5.1130     3.7190     0.9930 ca         1 693      -0.143000
     33 C6B         -4.2250     2.6300     0.9480 ca         1 693      -0.094000
     34 F2B         -2.0650     3.6980    -1.8300 f          1 693      -0.178000
     35 HC2          6.7330     2.0810    -0.3210 ha         1 693       0.078000
     36 HC3          4.4810     3.1390    -0.2760 ha         1 693       0.116000
     37 HC6          4.8800    -1.8600    -0.0030 ha         1 693       0.121000
     38 HH11         8.4270    -2.1960    -0.8880 hn         1 693       0.351500
     39 HH12         6.7250    -2.2610    -1.2140 hn         1 693       0.351500
     40 HH21         8.2390     0.9260     0.8230 hn         1 693       0.351500
     41 HH22         9.2740    -0.4240     0.4840 hn         1 693       0.351500
     42 HN3          1.6760     2.4820    -0.1000 hn         1 693       0.424000
     43 H1           0.0500    -1.8260     0.2120 ha         1 693       0.215000
     44 H31B        -3.7070    -2.1770     0.3560 hc         1 693       0.047700
     45 H42A        -2.4610    -2.7270    -1.6760 hc         1 693       0.002200
     46 H42B        -1.2640    -3.6510    -0.6390 hc         1 693       0.002200
     47 HC4         -3.8110     0.0390     0.2700 ha         1 693       0.167000
     48 H3B         -3.7710     5.6200    -1.4990 ha         1 693       0.100000
     49 H4B         -5.6330     5.6460     0.1570 ha         1 693       0.083000
     50 H5B         -5.9330     3.7200     1.7070 ha         1 693       0.092000
     51 H6B         -4.3690     1.8100     1.6480 ha         1 693       0.129000
@<TRIPOS>BOND
     1     1     2 ar  
     2     1     6 ar  
     3     1     7 1   
     4     2     3 ar  
     5     2    35 1   
     6     3     4 ar  
     7     3    36 1   
     8     4     5 ar  
     9     4    10 2   
    10     5     6 ar  
    11     5    11 2   
    12     6    37 1   
    13     7     8 2   
    14     7     9 1   
    15     8    38 1   
    16     8    39 1   
    17     9    40 1   
    18     9    41 1   
    19    10    12 1   
    20    10    42 1   
    21    11    12 1   
    22    12    13 2   
    23    13    14 1   
    24    13    26 1   
    25    14    15 2   
    26    14    43 1   
    27    15    16 1   
    28    15    24 1   
    29    16    17 1   
    30    16    20 1   
    31    16    44 1   
    32    17    18 1   
    33    17    19 1   
    34    20    21 1   
    35    20    45 1   
    36    20    46 1   
    37    21    22 1   
    38    21    23 1   
    39    24    25 2   
    40    24    47 1   
    41    25    26 1   
    42    25    28 1   
    43    26    27 2   
    44    28    29 ar  
    45    28    33 ar  
    46    29    30 ar  
    47    29    34 1   
    48    30    31 ar  
    49    30    48 1   
    50    31    32 ar  
    51    31    49 1   
    52    32    33 ar  
    53    32    50 1   
    54    33    51 1   
@<TRIPOS>SUBSTRUCTURE
     1 693         1 TEMP              0 ****  ****    0 ROOT
