@<TRIPOS>MOLECULE
693
   51    54     1     0     0
SMALL
abcg2


@<TRIPOS>ATOM
      1 C1           5.8650     0.0730    -0.0950 ca         1 693      -0.291900
      2 C2           5.7640     1.4760    -0.1180 ca         1 693      -0.113000
      3 C3           4.5330     2.1040    -0.0930 ca         1 693      -0.127000
      4 C4           3.4070     1.2930    -0.0350 ca         1 693       0.013000
      5 C5           3.4890    -0.1190    -0.0020 ca         1 693      -0.023000
      6 C6           4.7310    -0.7360    -0.0380 ca         1 693      -0.092000
      7 C7           7.1890    -0.5510    -0.1440 ce         1 693       0.484400
      8 N1           7.3430    -1.6940    -0.7750 nv         1 693      -0.608700
      9 N2           8.2090     0.0350     0.4400 nv         1 693      -0.592800
     10 N3           2.0780     1.5560     0.0080 na         1 693      -0.281900
     11 N4           2.2390    -0.6650     0.0630 nc         1 693      -0.341600
     12 C8           1.4150     0.3650     0.0630 cc         1 693       0.277500
     13 C9          -0.0300     0.3190     0.1090 cd         1 693      -0.289200
     14 C10         -0.6640    -0.9250     0.1950 cd         1 693      -0.060000
     15 C11         -2.0390    -1.0550     0.2420 cc         1 693      -0.102200
     16 CVX         -2.7140    -2.4040     0.3350 c3         1 693      -0.119500
     17 CWX         -2.3770    -3.0350     1.7010 c          1 693       0.744000
     18 OXX         -3.0560    -2.6500     2.6760 o          1 693      -0.736000
     19 OYX         -1.4260    -3.8420     1.7420 o          1 693      -0.736000
     20 C6X         -2.3440    -3.3080    -0.8320 c3         1 693      -0.160400
     21 C7X         -2.9840    -4.7010    -0.7820 c          1 693       0.733000
     22 O8X         -4.0620    -4.8180    -0.1630 o          1 693      -0.767500
     23 O9X         -2.3970    -5.6130    -1.4050 o          1 693      -0.767500
     24 C12         -2.7830     0.1300     0.1990 cc         1 693      -0.040000
     25 C13         -2.2050     1.3810     0.1010 cd         1 693      -0.274400
     26 C14         -0.7800     1.5450     0.0710 c          1 693       0.581500
     27 O6          -0.2450     2.6970     0.0320 o          1 693      -0.773100
     28 C1B         -3.0580     2.5850     0.0830 ca         1 693       0.020200
     29 C2B         -3.0450     3.4830    -0.9770 ca         1 693       0.183000
     30 C3B         -3.8450     4.6080    -1.0250 ca         1 693      -0.180000
     31 C4B         -4.7150     4.8590     0.0300 ca         1 693      -0.130000
     32 C5B         -4.7710     3.9800     1.1020 ca         1 693      -0.143000
     33 C6B         -3.9480     2.8610     1.1210 ca         1 693      -0.094000
     34 F2B         -2.2490     3.2320    -2.0290 f          1 693      -0.178000
     35 HC2          6.6560     2.0840    -0.1910 ha         1 693       0.078000
     36 HC3          4.4590     3.1830    -0.1270 ha         1 693       0.116000
     37 HC6          4.8060    -1.8150     0.0080 ha         1 693       0.121000
     38 HH11         8.2240    -2.1840    -0.7900 hn         1 693       0.351500
     39 HH12         6.6040    -2.0680    -1.3470 hn         1 693       0.351500
     40 HH21         8.0720     0.8360     1.0330 hn         1 693       0.351500
     41 HH22         9.1480    -0.3260     0.3680 hn         1 693       0.351500
     42 HN3          1.5310     2.4230    -0.0010 hn         1 693       0.424000
     43 H1          -0.0410    -1.8120     0.2310 ha         1 693       0.215000
     44 H31B        -3.7930    -2.2320     0.3070 hc         1 693       0.047700
     45 H42A        -2.6630    -2.8280    -1.7670 hc         1 693       0.002200
     46 H42B        -1.2600    -3.4120    -0.9090 hc         1 693       0.002200
     47 HC4         -3.8670     0.0610     0.2230 ha         1 693       0.167000
     48 H3B         -3.7980     5.2710    -1.8790 ha         1 693       0.100000
     49 H4B         -5.3460     5.7370     0.0040 ha         1 693       0.083000
     50 H5B         -5.4470     4.1670     1.9250 ha         1 693       0.092000
     51 H6B         -3.9840     2.1820     1.9640 ha         1 693       0.129000
@<TRIPOS>BOND
     1     1     2 ar  
     2     1     6 ar  
     3     1     7 1   
     4     2     3 ar  
     5     2    35 1   
     6     3     4 ar  
     7     3    36 1   
     8     4     5 ar  
     9     4    10 2   
    10     5     6 ar  
    11     5    11 2   
    12     6    37 1   
    13     7     8 2   
    14     7     9 1   
    15     8    38 1   
    16     8    39 1   
    17     9    40 1   
    18     9    41 1   
    19    10    12 1   
    20    10    42 1   
    21    11    12 1   
    22    12    13 2   
    23    13    14 1   
    24    13    26 1   
    25    14    15 2   
    26    14    43 1   
    27    15    16 1   
    28    15    24 1   
    29    16    17 1   
    30    16    20 1   
    31    16    44 1   
    32    17    18 1   
    33    17    19 1   
    34    20    21 1   
    35    20    45 1   
    36    20    46 1   
    37    21    22 1   
    38    21    23 1   
    39    24    25 2   
    40    24    47 1   
    41    25    26 1   
    42    25    28 1   
    43    26    27 2   
    44    28    29 ar  
    45    28    33 ar  
    46    29    30 ar  
    47    29    34 1   
    48    30    31 ar  
    49    30    48 1   
    50    31    32 ar  
    51    31    49 1   
    52    32    33 ar  
    53    32    50 1   
    54    33    51 1   
@<TRIPOS>SUBSTRUCTURE
     1 693         1 TEMP              0 ****  ****    0 ROOT
