@<TRIPOS>MOLECULE
694
   28    29     1     0     0
SMALL
abcg2


@<TRIPOS>ATOM
      1 C1          -3.0350    -0.5740    -0.8810 ca         1 694      -0.069500
      2 C2          -4.4070    -0.7410    -0.9760 ca         1 694      -0.182000
      3 C3          -5.2660     0.1260    -0.3040 ca         1 694       0.097100
      4 C4          -4.7310     1.1610     0.4610 ca         1 694      -0.182000
      5 C5          -3.3600     1.3150     0.5520 ca         1 694      -0.069500
      6 C6          -2.4850     0.4510    -0.1120 ca         1 694       0.023000
      7 C7          -1.0380     0.6500    -0.0260 cc         1 694      -0.252000
      8 C8          -0.0300    -0.2390     0.2210 cd         1 694      -0.032900
      9 C9           1.2770     0.3380     0.2350 cd         1 694       0.108100
     10 C10          1.2460     1.6820    -0.0200 cc         1 694      -0.238600
     11 S1          -0.3690     2.2220    -0.2620 ss         1 694       0.214000
     12 C11          2.3260     2.7250    -0.1040 c          1 694       0.733600
     13 O1           1.9050     3.8790    -0.3190 o          1 694      -0.703000
     14 O2           3.5010     2.3530     0.0440 o          1 694      -0.703000
     15 O3           2.3650    -0.4010     0.5020 os         1 694      -0.290100
     16 C12          3.0900    -0.8180    -0.6520 c3         1 694       0.025600
     17 C13          4.2770    -1.7080    -0.2660 c          1 694       0.733000
     18 O4           4.9350    -2.1150    -1.2450 o          1 694      -0.741000
     19 O5           4.4800    -1.9360     0.9350 o          1 694      -0.741000
     20 BR1         -0.2760    -2.0520     0.6220 br         1 694      -0.117100
     21 O6          -6.6050     0.0130    -0.3630 oh         1 694      -0.553100
     22 H1          -2.3910    -1.2420    -1.4370 ha         1 694       0.126500
     23 H2          -4.8060    -1.5460    -1.5830 ha         1 694       0.101000
     24 H4          -5.3910     1.8380     0.9880 ha         1 694       0.101000
     25 H5          -2.9640     2.1170     1.1630 ha         1 694       0.126500
     26 H121         3.4560     0.0590    -1.1950 h1         1 694       0.018200
     27 H122         2.4300    -1.3720    -1.3310 h1         1 694       0.018200
     28 HO6         -6.8560    -0.7270    -0.9270 ho         1 694       0.449000
@<TRIPOS>BOND
     1     1     2 ar  
     2     1     6 ar  
     3     1    22 1   
     4     2     3 ar  
     5     2    23 1   
     6     3     4 ar  
     7     3    21 1   
     8     4     5 ar  
     9     4    24 1   
    10     5     6 ar  
    11     5    25 1   
    12     6     7 1   
    13     7     8 2   
    14     7    11 1   
    15     8     9 1   
    16     8    20 1   
    17     9    10 2   
    18     9    15 1   
    19    10    11 1   
    20    10    12 1   
    21    12    13 1   
    22    12    14 1   
    23    15    16 1   
    24    16    17 1   
    25    16    26 1   
    26    16    27 1   
    27    17    18 1   
    28    17    19 1   
    29    21    28 1   
@<TRIPOS>SUBSTRUCTURE
     1 694         1 TEMP              0 ****  ****    0 ROOT
