@<TRIPOS>MOLECULE
694
   28    29     1     0     0
SMALL
No Charge or Current Charge


@<TRIPOS>ATOM
      1 C1          -2.9290    -0.3600    -1.1060 ca         1 694      -0.069500
      2 C2          -4.3000    -0.6750    -1.1350 ca         1 694      -0.182000
      3 C3          -5.1830    -0.0390    -0.2480 ca         1 694       0.097100
      4 C4          -4.7000     0.9130     0.6610 ca         1 694      -0.182000
      5 C5          -3.3290     1.2280     0.6900 ca         1 694      -0.069500
      6 C6          -2.4330     0.5860    -0.1860 ca         1 694       0.023000
      7 C7          -1.0150     0.9330    -0.1610 cc         1 694      -0.252000
      8 C8          -0.0320     0.0010     0.0830 cd         1 694      -0.032900
      9 C9           1.2610     0.6220     0.1130 cd         1 694       0.108100
     10 C10          1.2560     1.9920    -0.0480 cc         1 694      -0.238600
     11 S1          -0.3870     2.5720    -0.2890 ss         1 694       0.214000
     12 C11          2.4140     2.9170    -0.0480 c          1 694       0.733600
     13 O1           2.1890     4.1080    -0.2100 o          1 694      -0.703000
     14 O2           3.5480     2.4900     0.1070 o          1 694      -0.703000
     15 O3           2.4200    -0.0730     0.3380 os         1 694      -0.290100
     16 C12          2.8400    -1.0860    -0.6110 c3         1 694       0.025600
     17 C13          4.1270    -1.8510    -0.1720 c          1 694       0.733000
     18 O4           4.5890    -2.6760    -0.9510 o          1 694      -0.741000
     19 O5           4.6320    -1.6220     0.9210 o          1 694      -0.741000
     20 Br1         -0.3660    -1.8300     0.4640 br         1 694      -0.117100
     21 O6          -6.5100    -0.3390    -0.2720 oh         1 694      -0.553100
     22 H1          -2.2480    -0.8470    -1.8010 ha         1 694       0.126500
     23 H2          -4.6660    -1.4100    -1.8480 ha         1 694       0.101000
     24 H4          -5.3840     1.4090     1.3450 ha         1 694       0.101000
     25 H5          -2.9600     1.9660     1.3980 ha         1 694       0.126500
     26 H121         3.0450    -0.6180    -1.5830 h1         1 694       0.018200
     27 H122         2.0580    -1.8350    -0.7690 h1         1 694       0.018200
     28 HO6         -6.6620    -1.0180    -0.9650 ho         1 694       0.449000
@<TRIPOS>BOND
     1     1     2 ar  
     2     1     6 ar  
     3     1    22 1   
     4     2     3 ar  
     5     2    23 1   
     6     3     4 ar  
     7     3    21 1   
     8     4     5 ar  
     9     4    24 1   
    10     5     6 ar  
    11     5    25 1   
    12     6     7 1   
    13     7     8 2   
    14     7    11 1   
    15     8     9 1   
    16     8    20 1   
    17     9    10 2   
    18     9    15 1   
    19    10    11 1   
    20    10    12 1   
    21    12    13 1   
    22    12    14 1   
    23    15    16 1   
    24    16    17 1   
    25    16    26 1   
    26    16    27 1   
    27    17    18 1   
    28    17    19 1   
    29    21    28 1   
@<TRIPOS>SUBSTRUCTURE
     1 694         1 TEMP              0 ****  ****    0 ROOT
