@<TRIPOS>MOLECULE
695
   39    40     1     0     0
SMALL
bcc


@<TRIPOS>ATOM
      1 C1          -1.2060    -1.7900     0.6220 ca         1 695      -0.054300
      2 N1           3.2680     1.9620     1.2050 n7         1 695      -0.807100
      3 O1           1.3350     2.6920    -0.1610 o          1 695      -0.601300
      4 S1           2.4720     1.7890    -0.2230 sy         1 695       1.287200
      5 C2          -1.6130    -3.0990     0.5850 ca         1 695      -0.126000
      6 N2          -3.7740     0.9690     0.4670 ns         1 695      -0.581900
      7 O2           3.4610     1.9290    -1.2790 o          1 695      -0.601300
      8 C3          -0.7770    -4.1230     0.1000 ca         1 695      -0.102000
      9 O3          -4.5750     1.5690    -1.5470 o          1 695      -0.603100
     10 C4           0.4780    -3.8330    -0.3530 ca         1 695      -0.127000
     11 C5           0.9460    -2.5000    -0.3340 ca         1 695       0.004000
     12 C6           0.1030    -1.4670     0.1590 ca         1 695      -0.056000
     13 C7           0.6010    -0.1440     0.1700 ca         1 695      -0.005000
     14 C8           1.8620     0.1240    -0.2900 ca         1 695      -0.305500
     15 C9           2.7000    -0.8930    -0.7910 ca         1 695      -0.055000
     16 C10          2.2420    -2.1780    -0.8030 ca         1 695      -0.128000
     17 C13          4.4510     1.1530     1.4630 c3         1 695       0.181100
     18 C16         -2.1540    -0.7310     1.1120 c3         1 695      -0.054100
     19 C17         -2.8570    -0.0250    -0.0450 c3         1 695       0.106000
     20 C19         -4.5690     1.7010    -0.3290 c          1 695       0.667100
     21 C20         -5.4520     2.7020     0.3720 c3         1 695      -0.178100
     22 HN1          2.6270     2.0150     1.9890 hn         1 695       0.422800
     23 H2          -2.6040    -3.3560     0.9400 ha         1 695       0.135000
     24 HN2         -3.8010     1.1270     1.4610 hn         1 695       0.310500
     25 H3          -1.1370    -5.1440     0.0910 ha         1 695       0.137000
     26 H4           1.1260    -4.6150    -0.7290 ha         1 695       0.138000
     27 H7          -0.0150     0.6610     0.5450 ha         1 695       0.152000
     28 H9           3.6870    -0.6630    -1.1680 ha         1 695       0.154000
     29 H10          2.8730    -2.9720    -1.1830 ha         1 695       0.137000
     30 H13          5.1640     1.2640     0.6500 h1         1 695       0.051700
     31 H13A         4.9160     1.5290     2.3700 h1         1 695       0.051700
     32 H13B         4.2300     0.0920     1.6030 h1         1 695       0.051700
     33 H16         -2.9070    -1.2000     1.7480 hc         1 695       0.050700
     34 H16A        -1.6370     0.0020     1.7370 hc         1 695       0.050700
     35 H17         -3.3970    -0.7620    -0.6440 h1         1 695       0.059200
     36 H17A        -2.1260     0.4460    -0.7090 h1         1 695       0.059200
     37 H20         -5.1940     3.7070     0.0400 hc         1 695       0.059700
     38 H20A        -6.4920     2.5260     0.0970 hc         1 695       0.059700
     39 H20B        -5.3720     2.6690     1.4570 hc         1 695       0.059700
@<TRIPOS>BOND
     1     1     5 ar  
     2     1    12 ar  
     3     1    18 1   
     4     2     4 1   
     5     2    17 1   
     6     2    22 1   
     7     3     4 2   
     8     4     7 2   
     9     4    14 1   
    10     5     8 ar  
    11     5    23 1   
    12     6    19 1   
    13     6    20 1   
    14     6    24 1   
    15     8    10 ar  
    16     8    25 1   
    17     9    20 2   
    18    10    11 ar  
    19    10    26 1   
    20    11    12 ar  
    21    11    16 ar  
    22    12    13 ar  
    23    13    14 ar  
    24    13    27 1   
    25    14    15 ar  
    26    15    16 ar  
    27    15    28 1   
    28    16    29 1   
    29    17    30 1   
    30    17    31 1   
    31    17    32 1   
    32    18    19 1   
    33    18    33 1   
    34    18    34 1   
    35    19    35 1   
    36    19    36 1   
    37    20    21 1   
    38    21    37 1   
    39    21    38 1   
    40    21    39 1   
@<TRIPOS>SUBSTRUCTURE
     1 695         1 TEMP              0 ****  ****    0 ROOT
