@<TRIPOS>MOLECULE
695
   39    40     1     0     0
SMALL
No Charge or Current Charge


@<TRIPOS>ATOM
      1 C1          -1.2980    -1.9500     0.6070 ca         1 695      -0.054300
      2 N1           3.1310     1.4730     1.2120 n7         1 695      -0.862300
      3 O1           1.5850     2.3760    -0.5360 o          1 695      -0.530500
      4 S1           2.6500     1.3820    -0.3820 sy         1 695       1.145600
      5 C2          -1.8310    -3.2550     0.5960 ca         1 695      -0.108000
      6 N2          -3.6630     1.0840     0.4980 ns         1 695      -0.514900
      7 O2           3.8720     1.3850    -1.1900 o          1 695      -0.530500
      8 C3          -1.0750    -4.3380     0.1250 ca         1 695      -0.084000
      9 O3          -4.3380     1.8980    -1.5180 o          1 695      -0.603100
     10 C4           0.2290    -4.1300    -0.3430 ca         1 695      -0.109000
     11 C5           0.7810    -2.8370    -0.3440 ca         1 695       0.004000
     12 C6           0.0250    -1.7350     0.1290 ca         1 695      -0.056000
     13 C7           0.6160    -0.4480     0.1080 ca         1 695       0.013000
     14 C8           1.9290    -0.2650    -0.3730 ca         1 695      -0.305500
     15 C9           2.6680    -1.3710    -0.8370 ca         1 695      -0.037000
     16 C10          2.0910    -2.6490    -0.8210 ca         1 695      -0.110000
     17 C13          4.1830     2.4470     1.5560 c3         1 695       0.181100
     18 C16         -2.1860    -0.8190     1.1300 c3         1 695      -0.054100
     19 C17         -2.8260    -0.0040    -0.0110 c3         1 695       0.106000
     20 C19         -4.3610     1.9610    -0.2980 c          1 695       0.600100
     21 C20         -5.1630     3.0130     0.4570 c3         1 695      -0.178100
     22 HN1          3.4610     0.5240     1.3830 hn         1 695       0.478000
     23 H2          -2.8430    -3.4350     0.9530 ha         1 695       0.117000
     24 HN2         -3.7430     1.2120     1.5000 hn         1 695       0.310500
     25 H3          -1.5000    -5.3400     0.1240 ha         1 695       0.119000
     26 H4           0.8100    -4.9750    -0.7060 ha         1 695       0.120000
     27 H7           0.0690     0.4200     0.4660 ha         1 695       0.134000
     28 H9           3.6830    -1.2480    -1.2110 ha         1 695       0.136000
     29 H10          2.6680    -3.4980    -1.1820 ha         1 695       0.119000
     30 H13          3.8600     3.4720     1.3250 h1         1 695       0.051700
     31 H13A         4.4140     2.4040     2.6290 h1         1 695       0.051700
     32 H13B         5.1130     2.2490     1.0050 h1         1 695       0.051700
     33 H16         -2.9890    -1.2290     1.7550 hc         1 695       0.050700
     34 H16A        -1.6190    -0.1530     1.7920 hc         1 695       0.050700
     35 H17         -3.4450    -0.6690    -0.6280 h1         1 695       0.059200
     36 H17A        -2.0430     0.4220    -0.6510 h1         1 695       0.059200
     37 H20         -4.4920     3.5580     1.1300 hc         1 695       0.059700
     38 H20A        -5.7050     3.6910    -0.2120 hc         1 695       0.059700
     39 H20B        -5.8390     2.5110     1.1590 hc         1 695       0.059700
@<TRIPOS>BOND
     1     1     5 ar  
     2     1    12 ar  
     3     1    18 1   
     4     2     4 1   
     5     2    17 1   
     6     2    22 1   
     7     3     4 2   
     8     4     7 2   
     9     4    14 1   
    10     5     8 ar  
    11     5    23 1   
    12     6    19 1   
    13     6    20 1   
    14     6    24 1   
    15     8    10 ar  
    16     8    25 1   
    17     9    20 2   
    18    10    11 ar  
    19    10    26 1   
    20    11    12 ar  
    21    11    16 ar  
    22    12    13 ar  
    23    13    14 ar  
    24    13    27 1   
    25    14    15 ar  
    26    15    16 ar  
    27    15    28 1   
    28    16    29 1   
    29    17    30 1   
    30    17    31 1   
    31    17    32 1   
    32    18    19 1   
    33    18    33 1   
    34    18    34 1   
    35    19    35 1   
    36    19    36 1   
    37    20    21 1   
    38    21    37 1   
    39    21    38 1   
    40    21    39 1   
@<TRIPOS>SUBSTRUCTURE
     1 695         1 TEMP              0 ****  ****    0 ROOT
