@<TRIPOS>MOLECULE
696
   42    45     1     0     0
SMALL
bcc


@<TRIPOS>ATOM
      1 C1          -4.9690     0.3930    -0.0330 ca         1 696      -0.312900
      2 C2          -4.3910     1.6750     0.0690 ca         1 696      -0.126000
      3 C3          -3.0210     1.8320     0.0950 ca         1 696      -0.120000
      4 C4          -2.2320     0.6870     0.0300 ca         1 696       0.037000
      5 C5          -2.7930    -0.6160    -0.0670 ca         1 696      -0.066000
      6 C6          -4.1790    -0.7500    -0.1030 ca         1 696      -0.055000
      7 C7          -6.4260     0.2630    -0.0620 ce         1 696       0.530400
      8 N1          -6.9800    -0.6850    -0.7860 nv         1 696      -0.494600
      9 N2          -7.1700     1.0920     0.6350 nv         1 696      -0.478700
     10 N3          -0.8890     0.5420     0.0430 na         1 696      -0.192600
     11 CN4         -1.7080    -1.5310    -0.1050 cc         1 696      -0.296000
     12 C8          -0.5470    -0.7840    -0.0400 cc         1 696       0.128900
     13 C9           0.8500    -1.1880    -0.0530 cd         1 696      -0.313200
     14 C10          1.1600    -2.5470    -0.1200 cd         1 696      -0.015000
     15 C11          2.4660    -2.9970    -0.1400 cc         1 696      -0.275000
     16 C12          3.4930    -2.0550    -0.0950 cc         1 696      -0.031000
     17 C13          3.2440    -0.6940    -0.0340 cd         1 696      -0.212400
     18 C14          1.8930    -0.1930     0.0020 c          1 696       0.585500
     19 O6           1.6510     1.0510     0.0860 o          1 696      -0.742100
     20 C1B          4.3830     0.2440     0.0180 ca         1 696       0.012200
     21 C2B          5.4780    -0.0240     0.8450 ca         1 696      -0.122000
     22 C3B          6.5880     0.8090     0.8710 ca         1 696      -0.139000
     23 C4B          6.6280     1.9420     0.0700 ca         1 696      -0.150000
     24 C5B          5.5460     2.2270    -0.7550 ca         1 696      -0.139000
     25 C6B          4.4370     1.3940    -0.7770 ca         1 696      -0.122000
     26 H2          -5.0200     2.5550     0.0880 ha         1 696       0.116000
     27 H3          -2.5800     2.8190     0.1550 ha         1 696       0.150000
     28 H6          -4.6250    -1.7360    -0.1510 ha         1 696       0.123000
     29 HH11        -7.9730    -0.8600    -0.7730 hn         1 696       0.313450
     30 HH12        -6.4290    -1.2230    -1.4330 hn         1 696       0.313450
     31 HH21        -6.7530     1.7240     1.2980 hn         1 696       0.313450
     32 HH22        -8.1770     1.0820     0.5850 hn         1 696       0.313450
     33 HN3         -0.1370     1.2320     0.0960 hn         1 696       0.371700
     34 HN4         -1.7800    -2.6050    -0.1750 ha         1 696       0.155000
     35 H1           0.3540    -3.2720    -0.1600 ha         1 696       0.100000
     36 H7           2.6860    -4.0540    -0.1990 ha         1 696       0.116000
     37 H4           4.5220    -2.3970    -0.1300 ha         1 696       0.110000
     38 H2B          5.4540    -0.8970     1.4880 ha         1 696       0.131500
     39 H3B          7.4190     0.5750     1.5250 ha         1 696       0.116000
     40 H4B          7.4900     2.5950     0.0860 ha         1 696       0.116000
     41 H5B          5.5670     3.1040    -1.3890 ha         1 696       0.116000
     42 H6B          3.6120     1.6300    -1.4350 ha         1 696       0.131500
@<TRIPOS>BOND
     1     1     2 ar  
     2     1     6 ar  
     3     1     7 1   
     4     2     3 ar  
     5     2    26 1   
     6     3     4 ar  
     7     3    27 1   
     8     4     5 ar  
     9     4    10 2   
    10     5     6 ar  
    11     5    11 2   
    12     6    28 1   
    13     7     8 2   
    14     7     9 1   
    15     8    29 1   
    16     8    30 1   
    17     9    31 1   
    18     9    32 1   
    19    10    12 1   
    20    10    33 1   
    21    11    12 1   
    22    11    34 1   
    23    12    13 2   
    24    13    14 1   
    25    13    18 1   
    26    14    15 2   
    27    14    35 1   
    28    15    16 1   
    29    15    36 1   
    30    16    17 2   
    31    16    37 1   
    32    17    18 1   
    33    17    20 1   
    34    18    19 2   
    35    20    21 ar  
    36    20    25 ar  
    37    21    22 ar  
    38    21    38 1   
    39    22    23 ar  
    40    22    39 1   
    41    23    24 ar  
    42    23    40 1   
    43    24    25 ar  
    44    24    41 1   
    45    25    42 1   
@<TRIPOS>SUBSTRUCTURE
     1 696         1 TEMP              0 ****  ****    0 ROOT
