@<TRIPOS>MOLECULE
696
   42    45     1     0     0
SMALL
No Charge or Current Charge


@<TRIPOS>ATOM
      1 C1          -5.0680     0.3630    -0.0570 ca         1 696      -0.312900
      2 C2          -4.4840     1.6630    -0.0310 ca         1 696      -0.108000
      3 C3          -3.0830     1.8350    -0.0210 ca         1 696      -0.102000
      4 C4          -2.2780     0.6910    -0.0360 ca         1 696       0.037000
      5 C5          -2.8360    -0.5760    -0.0610 ca         1 696      -0.066000
      6 C6          -4.2210    -0.7770    -0.0720 ca         1 696      -0.037000
      7 C7          -6.5480     0.1970    -0.0670 ce         1 696       0.530400
      8 N1          -7.1050    -0.8800    -0.6960 nv         1 696      -0.595200
      9 N2          -7.3350     1.1240     0.5540 nv         1 696      -0.579300
     10 N3          -0.8890     0.6080    -0.0290 na         1 696      -0.242900
     11 CN4         -1.7490    -1.5220    -0.0680 cc         1 696      -0.346000
     12 C8          -0.5530    -0.7360    -0.0470 cc         1 696       0.128900
     13 C9           0.8010    -1.0800    -0.0450 cd         1 696      -0.313200
     14 C10          1.0550    -2.4950    -0.0560 cd         1 696      -0.065000
     15 C11          2.3630    -2.9160    -0.0330 cc         1 696      -0.325000
     16 C12          3.4730    -2.0110    -0.0260 cc         1 696      -0.081000
     17 C13          3.3100    -0.6350    -0.0660 cd         1 696      -0.212400
     18 C14          1.9180    -0.0730    -0.0200 c          1 696       0.585500
     19 O6           1.7050     1.1360     0.0580 o          1 696      -0.742100
     20 C1B          4.5100     0.2510    -0.0050 ca         1 696       0.012200
     21 C2B          5.6930    -0.1810     0.6450 ca         1 696      -0.104000
     22 C3B          6.8350     0.6380     0.6970 ca         1 696      -0.121000
     23 C4B          6.8230     1.9030     0.0910 ca         1 696      -0.132000
     24 C5B          5.6680     2.3450    -0.5680 ca         1 696      -0.121000
     25 C6B          4.5250     1.5280    -0.6170 ca         1 696      -0.104000
     26 H2          -5.1140     2.5510    -0.0320 ha         1 696       0.098000
     27 H3          -2.6420     2.8290    -0.0040 ha         1 696       0.132000
     28 H6          -4.6210    -1.7890    -0.0790 ha         1 696       0.105000
     29 HH11        -8.0970    -0.8620    -0.8890 hn         1 696       0.363750
     30 HH12        -6.5140    -1.4180    -1.3150 hn         1 696       0.363750
     31 HH21        -6.8780     1.7810     1.1710 hn         1 696       0.363750
     32 HH22        -8.3000     0.8900     0.7450 hn         1 696       0.363750
     33 HN3         -0.2080     1.3640    -0.0010 hn         1 696       0.422000
     34 HN4         -1.8110    -2.6050    -0.0860 ha         1 696       0.205000
     35 H1           0.2620    -3.2360    -0.0690 ha         1 696       0.150000
     36 H7           2.5800    -3.9820    -0.0280 ha         1 696       0.166000
     37 H4           4.4640    -2.4570    -0.0340 ha         1 696       0.160000
     38 H2B          5.7310    -1.1420     1.1490 ha         1 696       0.113500
     39 H3B          7.7280     0.2920     1.2120 ha         1 696       0.098000
     40 H4B          7.7070     2.5350     0.1300 ha         1 696       0.098000
     41 H5B          5.6580     3.3200    -1.0500 ha         1 696       0.098000
     42 H6B          3.6640     1.8870    -1.1710 ha         1 696       0.113500
@<TRIPOS>BOND
     1     1     2 ar  
     2     1     6 ar  
     3     1     7 1   
     4     2     3 ar  
     5     2    26 1   
     6     3     4 ar  
     7     3    27 1   
     8     4     5 ar  
     9     4    10 2   
    10     5     6 ar  
    11     5    11 2   
    12     6    28 1   
    13     7     8 2   
    14     7     9 1   
    15     8    29 1   
    16     8    30 1   
    17     9    31 1   
    18     9    32 1   
    19    10    12 1   
    20    10    33 1   
    21    11    12 1   
    22    11    34 1   
    23    12    13 2   
    24    13    14 1   
    25    13    18 1   
    26    14    15 2   
    27    14    35 1   
    28    15    16 1   
    29    15    36 1   
    30    16    17 2   
    31    16    37 1   
    32    17    18 1   
    33    17    20 1   
    34    18    19 2   
    35    20    21 ar  
    36    20    25 ar  
    37    21    22 ar  
    38    21    38 1   
    39    22    23 ar  
    40    22    39 1   
    41    23    24 ar  
    42    23    40 1   
    43    24    25 ar  
    44    24    41 1   
    45    25    42 1   
@<TRIPOS>SUBSTRUCTURE
     1 696         1 TEMP              0 ****  ****    0 ROOT
