@<TRIPOS>MOLECULE
697
   28    30     1     0     0
SMALL
No Charge or Current Charge


@<TRIPOS>ATOM
      1 C1          -0.0870     0.0860     4.8280 ca         1 697       0.159100
      2 C2          -1.3290    -0.0780     4.2020 ca         1 697      -0.182500
      3 C3          -1.4200    -0.0940     2.7990 ca         1 697      -0.038000
      4 C4          -0.2600     0.0570     2.0050 ca         1 697      -0.088800
      5 C5           0.9860     0.2180     2.6490 ca         1 697      -0.038000
      6 C6           1.0720     0.2330     4.0520 ca         1 697      -0.182500
      7 O11         -0.0140     0.0990     6.1880 oh         1 697      -0.527100
      8 C12         -0.3250     0.0430     0.5400 cc         1 697       0.120900
      9 C13         -1.4710     0.1240    -0.2260 cd         1 697      -0.243200
     10 C14         -1.0520     0.1020    -1.5900 ca         1 697      -0.068800
     11 C15          0.3180     0.0120    -1.5480 ca         1 697       0.056100
     12 O16          0.8160    -0.0240    -0.2570 os         1 697      -0.161200
     13 C17         -1.7740     0.1550    -2.7860 ca         1 697      -0.147000
     14 C18         -1.0390     0.1120    -3.9890 ca         1 697       0.121100
     15 C19          0.3730     0.0200    -3.9630 ca         1 697      -0.085000
     16 C20          1.0720    -0.0310    -2.7320 ca         1 697       0.024000
     17 O23         -1.6870     0.1600    -5.1890 oh         1 697      -0.531100
     18 C7           2.5050    -0.1240    -2.6980 cg         1 697       0.333000
     19 N27          3.6710    -0.1990    -2.6820 n1         1 697      -0.442000
     20 H2          -2.2270    -0.1960     4.8040 ha         1 697       0.126000
     21 H3          -2.3950    -0.2310     2.3390 ha         1 697       0.124500
     22 H5           1.8950     0.3350     2.0620 ha         1 697       0.124500
     23 H6           2.0420     0.3600     4.5270 ha         1 697       0.126000
     24 H11          0.9250     0.2210     6.4460 ho         1 697       0.470000
     25 H13         -2.4910     0.2100     0.1340 ha         1 697       0.216000
     26 H17         -2.8590     0.2260    -2.7800 ha         1 697       0.124000
     27 H19          0.9230    -0.0120    -4.9010 ha         1 697       0.144000
     28 H23         -2.6530     0.2230    -5.0210 ho         1 697       0.468000
@<TRIPOS>BOND
     1     1     2 ar  
     2     1     6 ar  
     3     1     7 1   
     4     2     3 ar  
     5     2    20 1   
     6     3     4 ar  
     7     3    21 1   
     8     4     5 ar  
     9     4     8 1   
    10     5     6 ar  
    11     5    22 1   
    12     6    23 1   
    13     7    24 1   
    14     8     9 2   
    15     8    12 1   
    16     9    10 1   
    17     9    25 1   
    18    10    11 ar  
    19    10    13 ar  
    20    11    12 1   
    21    11    16 ar  
    22    13    14 ar  
    23    13    26 1   
    24    14    15 ar  
    25    14    17 1   
    26    15    16 ar  
    27    15    27 1   
    28    16    18 1   
    29    17    28 1   
    30    18    19 3   
@<TRIPOS>SUBSTRUCTURE
     1 697         1 TEMP              0 ****  ****    0 ROOT
