@<TRIPOS>MOLECULE
697
   28    30     1     0     0
SMALL
abcg2


@<TRIPOS>ATOM
      1 C1           0.0220     0.0810     4.7720 ca         1 697       0.159100
      2 C2          -1.2550    -0.0180     4.2170 ca         1 697      -0.182500
      3 C3          -1.4130    -0.0270     2.8460 ca         1 697      -0.038000
      4 C4          -0.3130     0.0630     1.9880 ca         1 697      -0.088800
      5 C5           0.9590     0.1560     2.5560 ca         1 697      -0.038000
      6 C6           1.1280     0.1650     3.9290 ca         1 697      -0.182500
      7 O11          0.1240     0.0880     6.1100 oh         1 697      -0.527100
      8 C12         -0.5070     0.0650     0.5510 cc         1 697       0.120900
      9 C13         -1.6220     0.1090    -0.2250 cd         1 697      -0.243200
     10 C14         -1.1690     0.0910    -1.5840 ca         1 697      -0.068800
     11 C15          0.2200     0.0380    -1.5010 ca         1 697       0.056100
     12 O16          0.6190     0.0210    -0.2180 os         1 697      -0.161200
     13 C17         -1.7850     0.1200    -2.8330 ca         1 697      -0.147000
     14 C18         -0.9870     0.0940    -3.9700 ca         1 697       0.121100
     15 C19          0.4080     0.0370    -3.8720 ca         1 697      -0.085000
     16 C20          1.0290     0.0090    -2.6250 ca         1 697       0.024000
     17 O23         -1.4990     0.1200    -5.2160 oh         1 697      -0.531100
     18 C7           2.4460    -0.0470    -2.5090 cg         1 697       0.333000
     19 N27          3.5930    -0.0940    -2.4090 n1         1 697      -0.442000
     20 H2          -2.1180    -0.0890     4.8650 ha         1 697       0.126000
     21 H3          -2.4150    -0.1100     2.4440 ha         1 697       0.124500
     22 H5           1.8390     0.2280     1.9300 ha         1 697       0.124500
     23 H6           2.1270     0.2410     4.3430 ha         1 697       0.126000
     24 H11          1.0450     0.1770     6.3800 ho         1 697       0.470000
     25 H13         -2.6440     0.1570     0.1140 ha         1 697       0.216000
     26 H17         -2.8650     0.1630    -2.9140 ha         1 697       0.124000
     27 H19          1.0090     0.0160    -4.7710 ha         1 697       0.144000
     28 H23         -2.4610     0.1520    -5.1870 ho         1 697       0.468000
@<TRIPOS>BOND
     1     1     2 ar  
     2     1     6 ar  
     3     1     7 1   
     4     2     3 ar  
     5     2    20 1   
     6     3     4 ar  
     7     3    21 1   
     8     4     5 ar  
     9     4     8 1   
    10     5     6 ar  
    11     5    22 1   
    12     6    23 1   
    13     7    24 1   
    14     8     9 2   
    15     8    12 1   
    16     9    10 1   
    17     9    25 1   
    18    10    11 ar  
    19    10    13 ar  
    20    11    12 1   
    21    11    16 ar  
    22    13    14 ar  
    23    13    26 1   
    24    14    15 ar  
    25    14    17 1   
    26    15    16 ar  
    27    15    27 1   
    28    16    18 1   
    29    17    28 1   
    30    18    19 3   
@<TRIPOS>SUBSTRUCTURE
     1 697         1 TEMP              0 ****  ****    0 ROOT
