@<TRIPOS>MOLECULE
698
   60    62     1     0     0
SMALL
No Charge or Current Charge


@<TRIPOS>ATOM
      1 O24         13.3230    42.1420    49.5650 o          1 698      -0.737500
      2 C22         13.6420    42.1950    50.7420 c          1 698       0.716000
      3 O1          14.2170    41.2670    51.2900 o          1 698      -0.737500
      4 C15         13.4100    43.5000    51.5580 c5         1 698      -0.188700
      5 C14         11.9010    43.8040    51.8150 c5         1 698       0.093400
      6 C20         10.9120    43.2370    50.7900 cc         1 698       0.447700
      7 N1          10.1980    42.1340    51.0210 nd         1 698      -0.661000
      8 C28          9.3130    41.9060    49.9820 cd         1 698       0.259900
      9 C27          9.3480    42.8400    48.9770 cc         1 698      -0.355000
     10 S1          10.5350    44.0700    49.3000 ss         1 698       0.131600
     11 C16         13.9200    44.7690    50.8200 c5         1 698      -0.062400
     12 C17         13.1730    45.9640    51.5190 c5         1 698      -0.010600
     13 C33         14.0050    46.6130    52.6970 c3         1 698      -0.065400
     14 C37         14.4860    45.7860    53.9310 c3         1 698      -0.062700
     15 C40         13.3410    45.2950    54.8510 c3         1 698      -0.080600
     16 C44         15.4970    46.6120    54.7630 c3         1 698      -0.080600
     17 C34         12.9340    47.0570    50.3710 c          1 698       0.735000
     18 O35         13.5180    48.1340    50.4110 o          1 698      -0.730500
     19 O36         12.1690    46.8080    49.4480 o          1 698      -0.730500
     20 N12         11.9060    45.2940    51.9990 n          1 698      -0.364800
     21 C11         10.7260    46.0350    52.2840 c          1 698       0.607700
     22 O13         10.7090    47.2600    52.2400 o          1 698      -0.622100
     23 C5           9.4850    45.2890    52.7120 ca         1 698      -0.098600
     24 C4           8.2680    45.5490    52.0570 ca         1 698      -0.078000
     25 C3           7.1000    44.8590    52.4160 ca         1 698      -0.116500
     26 C6           9.4950    44.3640    53.7740 ca         1 698      -0.078000
     27 C1           8.3260    43.6750    54.1370 ca         1 698      -0.116500
     28 C2           7.1040    43.9000    53.4560 ca         1 698      -0.083300
     29 C51          5.7930    43.1470    53.8080 c3         1 698       0.004300
     30 C9           5.3030    42.3660    52.5590 c3         1 698      -0.079100
     31 C8           5.9680    42.1290    54.9700 c3         1 698      -0.079100
     32 C7           4.7080    44.1740    54.2330 c3         1 698      -0.079100
     33 H15         13.8990    43.3690    52.5270 hc         1 698       0.035700
     34 H14         11.6500    43.3200    52.7650 h1         1 698       0.058700
     35 H161        13.6720    44.7160    49.7540 hc         1 698       0.057700
     36 H162        15.0110    44.8690    50.8700 hc         1 698       0.057700
     37 H28          8.6610    41.0430    50.0180 h4         1 698       0.001100
     38 H27          8.7580    42.8830    48.0720 h4         1 698       0.122000
     39 H331        13.4420    47.4720    53.0810 hc         1 698       0.055700
     40 H332        14.9110    47.0430    52.2510 hc         1 698       0.055700
     41 H37         15.0400    44.9130    53.5720 hc         1 698       0.052700
     42 H401        12.7620    44.4980    54.3810 hc         1 698       0.017700
     43 H402        12.6630    46.1170    55.1070 hc         1 698       0.017700
     44 H403        13.7440    44.8830    55.7840 hc         1 698       0.017700
     45 H441        15.0250    47.5160    55.1670 hc         1 698       0.017700
     46 H442        16.3530    46.9170    54.1470 hc         1 698       0.017700
     47 H443        15.8860    46.0230    55.6020 hc         1 698       0.017700
     48 H4           8.2330    46.2760    51.2480 ha         1 698       0.125500
     49 H6          10.4080    44.1840    54.3370 ha         1 698       0.125500
     50 H3           6.1850    45.0750    51.8710 ha         1 698       0.093000
     51 HA           8.3960    42.9680    54.9570 ha         1 698       0.093000
     52 H9C1         6.0720    41.6620    52.2180 hc         1 698       0.028811
     53 H9C2         5.0690    43.0390    51.7260 hc         1 698       0.028811
     54 H9C3         4.3950    41.7930    52.7850 hc         1 698       0.028811
     55 H8C1         6.2870    42.6310    55.8920 hc         1 698       0.028811
     56 H8C2         6.7100    41.3610    54.7150 hc         1 698       0.028811
     57 H8C3         5.0240    41.6140    55.1850 hc         1 698       0.028811
     58 H7C1         4.4670    44.8680    53.4200 hc         1 698       0.028811
     59 H7C2         5.0510    44.7650    55.0910 hc         1 698       0.028811
     60 H7C3         3.7790    43.6670    54.5190 hc         1 698       0.028811
@<TRIPOS>BOND
     1     1     2 1   
     2     2     3 1   
     3     2     4 1   
     4     4     5 1   
     5     4    11 1   
     6     4    33 1   
     7     5     6 1   
     8     5    20 1   
     9     5    34 1   
    10     6     7 2   
    11     6    10 1   
    12     7     8 1   
    13     8     9 2   
    14     8    37 1   
    15     9    10 1   
    16     9    38 1   
    17    11    12 1   
    18    11    35 1   
    19    11    36 1   
    20    12    13 1   
    21    12    17 1   
    22    12    20 1   
    23    13    14 1   
    24    13    39 1   
    25    13    40 1   
    26    14    15 1   
    27    14    16 1   
    28    14    41 1   
    29    15    42 1   
    30    15    43 1   
    31    15    44 1   
    32    16    45 1   
    33    16    46 1   
    34    16    47 1   
    35    17    18 1   
    36    17    19 1   
    37    20    21 1   
    38    21    22 2   
    39    21    23 1   
    40    23    24 ar  
    41    23    26 ar  
    42    24    25 ar  
    43    24    48 1   
    44    25    28 ar  
    45    25    50 1   
    46    26    27 ar  
    47    26    49 1   
    48    27    28 ar  
    49    27    51 1   
    50    28    29 1   
    51    29    30 1   
    52    29    31 1   
    53    29    32 1   
    54    30    52 1   
    55    30    53 1   
    56    30    54 1   
    57    31    55 1   
    58    31    56 1   
    59    31    57 1   
    60    32    58 1   
    61    32    59 1   
    62    32    60 1   
@<TRIPOS>SUBSTRUCTURE
     1 698         1 TEMP              0 ****  ****    0 ROOT
