@<TRIPOS>MOLECULE
698
   60    62     1     0     0
SMALL
abcg2


@<TRIPOS>ATOM
      1 O24         13.6720    42.3070    49.4780 o          1 698      -0.737500
      2 C22         13.4470    42.2350    50.7100 c          1 698       0.716000
      3 O1          13.3440    41.1790    51.3870 o          1 698      -0.737500
      4 C15         13.2740    43.5500    51.5020 c5         1 698      -0.188700
      5 C14         11.7980    43.8950    51.8300 c5         1 698       0.093400
      6 C20         10.7800    43.4180    50.8280 cc         1 698       0.447700
      7 N1          10.0560    42.3550    51.0560 nd         1 698      -0.661000
      8 C28          9.2120    42.0810    50.0080 cd         1 698       0.259900
      9 C27          9.2930    42.9470    48.9620 cc         1 698      -0.355000
     10 S1          10.4590    44.1670    49.2940 ss         1 698       0.131600
     11 C16         13.8090    44.8200    50.8550 c5         1 698      -0.062400
     12 C17         13.0900    45.9920    51.5590 c5         1 698      -0.010600
     13 C33         13.9050    46.5980    52.7150 c3         1 698      -0.065400
     14 C37         14.4770    45.6920    53.8170 c3         1 698      -0.062700
     15 C40         13.4210    45.1360    54.7760 c3         1 698      -0.080600
     16 C44         15.5210    46.4850    54.6110 c3         1 698      -0.080600
     17 C34         12.7910    47.0780    50.4590 c          1 698       0.735000
     18 O35         13.6120    48.0220    50.3590 o          1 698      -0.730500
     19 O36         11.8050    46.8680    49.7170 o          1 698      -0.730500
     20 N12         11.8330    45.3540    52.0160 n          1 698      -0.364800
     21 C11         10.8060    46.0740    52.5080 c          1 698       0.607700
     22 O13         10.8510    47.3000    52.6490 o          1 698      -0.622100
     23 C5           9.5590    45.3230    52.8740 ca         1 698      -0.098600
     24 C4           8.4360    45.4260    52.0540 ca         1 698      -0.078000
     25 C3           7.2800    44.7260    52.3600 ca         1 698      -0.116500
     26 C6           9.4820    44.5410    54.0200 ca         1 698      -0.078000
     27 C1           8.3120    43.8520    54.3280 ca         1 698      -0.116500
     28 C2           7.1920    43.9160    53.4980 ca         1 698      -0.083300
     29 C51          5.9110    43.1260    53.7720 c3         1 698       0.004300
     30 C9           5.6780    42.1410    52.6090 c3         1 698      -0.079100
     31 C8           5.9870    42.3230    55.0760 c3         1 698      -0.079100
     32 C7           4.7160    44.0930    53.8680 c3         1 698      -0.079100
     33 H15         13.7610    43.3900    52.4620 hc         1 698       0.035700
     34 H14         11.5150    43.4010    52.7570 h1         1 698       0.058700
     35 H161        13.5610    44.8080    49.7950 hc         1 698       0.057700
     36 H162        14.8910    44.9060    50.9470 hc         1 698       0.057700
     37 H28          8.5440    41.2340    50.0690 h4         1 698       0.001100
     38 H27          8.7260    42.9470    48.0450 h4         1 698       0.122000
     39 H331        13.3020    47.3770    53.1860 hc         1 698       0.055700
     40 H332        14.7390    47.1090    52.2350 hc         1 698       0.055700
     41 H37         14.9990    44.8500    53.3520 hc         1 698       0.052700
     42 H401        12.7360    44.4480    54.2890 hc         1 698       0.017700
     43 H402        12.8290    45.9490    55.2060 hc         1 698       0.017700
     44 H403        13.8980    44.5970    55.5990 hc         1 698       0.017700
     45 H441        15.0620    47.3540    55.0910 hc         1 698       0.017700
     46 H442        16.3230    46.8450    53.9620 hc         1 698       0.017700
     47 H443        15.9690    45.8680    55.3940 hc         1 698       0.017700
     48 H4           8.4790    46.0340    51.1600 ha         1 698       0.125500
     49 H6          10.3400    44.4540    54.6750 ha         1 698       0.125500
     50 H3           6.4340    44.8070    51.6900 ha         1 698       0.093000
     51 HA           8.2930    43.2520    55.2250 ha         1 698       0.093000
     52 H9C1         6.5150    41.4450    52.5220 hc         1 698       0.028811
     53 H9C2         5.5710    42.6640    51.6580 hc         1 698       0.028811
     54 H9C3         4.7670    41.5640    52.7830 hc         1 698       0.028811
     55 H8C1         6.1390    42.9720    55.9400 hc         1 698       0.028811
     56 H8C2         6.7950    41.5900    55.0510 hc         1 698       0.028811
     57 H8C3         5.0500    41.7830    55.2210 hc         1 698       0.028811
     58 H7C1         4.5810    44.6580    52.9460 hc         1 698       0.028811
     59 H7C2         4.8590    44.8030    54.6860 hc         1 698       0.028811
     60 H7C3         3.7980    43.5330    54.0580 hc         1 698       0.028811
@<TRIPOS>BOND
     1     1     2 1   
     2     2     3 1   
     3     2     4 1   
     4     4     5 1   
     5     4    11 1   
     6     4    33 1   
     7     5     6 1   
     8     5    20 1   
     9     5    34 1   
    10     6     7 2   
    11     6    10 1   
    12     7     8 1   
    13     8     9 2   
    14     8    37 1   
    15     9    10 1   
    16     9    38 1   
    17    11    12 1   
    18    11    35 1   
    19    11    36 1   
    20    12    13 1   
    21    12    17 1   
    22    12    20 1   
    23    13    14 1   
    24    13    39 1   
    25    13    40 1   
    26    14    15 1   
    27    14    16 1   
    28    14    41 1   
    29    15    42 1   
    30    15    43 1   
    31    15    44 1   
    32    16    45 1   
    33    16    46 1   
    34    16    47 1   
    35    17    18 1   
    36    17    19 1   
    37    20    21 1   
    38    21    22 2   
    39    21    23 1   
    40    23    24 ar  
    41    23    26 ar  
    42    24    25 ar  
    43    24    48 1   
    44    25    28 ar  
    45    25    50 1   
    46    26    27 ar  
    47    26    49 1   
    48    27    28 ar  
    49    27    51 1   
    50    28    29 1   
    51    29    30 1   
    52    29    31 1   
    53    29    32 1   
    54    30    52 1   
    55    30    53 1   
    56    30    54 1   
    57    31    55 1   
    58    31    56 1   
    59    31    57 1   
    60    32    58 1   
    61    32    59 1   
    62    32    60 1   
@<TRIPOS>SUBSTRUCTURE
     1 698         1 TEMP              0 ****  ****    0 ROOT
