@<TRIPOS>MOLECULE
699
   52    54     1     0     0
SMALL
No Charge or Current Charge


@<TRIPOS>ATOM
      1 F54          5.4870    41.4310    50.3860 f          1 699      -0.127000
      2 C51          5.3130    42.5740    51.0860 c3         1 699       0.341300
      3 F52          4.9280    42.2190    52.3330 f          1 699      -0.127000
      4 F53          4.2640    43.2220    50.5300 f          1 699      -0.127000
      5 C2           6.5900    43.4220    51.0900 ca         1 699      -0.208300
      6 C1           7.5800    43.2210    52.0740 ca         1 699      -0.074500
      7 C6           8.7610    43.9820    52.0670 ca         1 699      -0.085000
      8 C3           6.8060    44.4050    50.1000 ca         1 699      -0.074500
      9 C4           7.9860    45.1670    50.0970 ca         1 699      -0.085000
     10 C5           8.9860    44.9480    51.0640 ca         1 699      -0.061600
     11 C11         10.2490    45.7800    51.0210 c          1 699       0.601700
     12 O13         10.1630    47.0040    51.0170 o          1 699      -0.624100
     13 N12         11.5060    45.1220    51.0690 n          1 699      -0.352800
     14 C17         12.8140    45.8810    51.0310 c5         1 699      -0.009600
     15 C34         12.8620    47.0420    49.9270 c          1 699       0.735000
     16 O36         12.4120    46.8390    48.8060 o          1 699      -0.731000
     17 O35         13.3510    48.1330    50.2000 o          1 699      -0.731000
     18 C33         13.2110    46.4830    52.4390 c3         1 699      -0.067400
     19 C37         13.3620    45.5940    53.7140 c3         1 699      -0.062700
     20 C44         14.0210    46.4080    54.8540 c3         1 699      -0.080100
     21 C40         12.0340    44.9800    54.2210 c3         1 699      -0.080100
     22 C16         13.8130    44.7710    50.5320 c5         1 699      -0.057400
     23 C15         13.1750    43.4360    51.0120 c5         1 699      -0.185700
     24 C22         13.7160    42.1810    50.2690 c          1 699       0.718000
     25 O25         14.0710    41.2270    50.9460 o          1 699      -0.740000
     26 O24         13.8960    42.1980    49.0600 o          1 699      -0.740000
     27 C14         11.6490    43.6610    50.8090 c5         1 699       0.201000
     28 C20         11.0520    43.1750    49.4980 cc         1 699      -0.162300
     29 S29          9.9000    41.8440    49.4260 ss         1 699       0.156000
     30 C26         11.2510    43.7160    48.2520 cd         1 699      -0.111000
     31 C27         10.4950    43.0790    47.2310 cd         1 699      -0.136000
     32 C28          9.7100    42.0530    47.6880 cc         1 699      -0.285000
     33 H1           7.4390    42.4720    52.8520 ha         1 699       0.111500
     34 H3           6.0630    44.5790    49.3250 ha         1 699       0.111500
     35 H6           9.4930    43.8260    52.8540 ha         1 699       0.137000
     36 H4           8.1370    45.9180    49.3240 ha         1 699       0.137000
     37 H14         11.1460    43.0940    51.6010 h1         1 699       0.036700
     38 H331        12.5010    47.2830    52.6820 hc         1 699       0.056700
     39 H332        14.1770    46.9880    52.3120 hc         1 699       0.056700
     40 H161        14.8270    44.9120    50.9230 hc         1 699       0.058200
     41 H162        13.9060    44.7820    49.4410 hc         1 699       0.058200
     42 H37         14.0570    44.7780    53.4900 hc         1 699       0.053700
     43 H441        13.3890    47.2550    55.1470 hc         1 699       0.017533
     44 H442        14.9970    46.7990    54.5410 hc         1 699       0.017533
     45 H443        14.1840    45.7790    55.7380 hc         1 699       0.017533
     46 H401        11.6810    44.1880    53.5580 hc         1 699       0.017533
     47 H402        11.2520    45.7450    54.3000 hc         1 699       0.017533
     48 H403        12.1680    44.5270    55.2100 hc         1 699       0.017533
     49 H15         13.3300    43.2660    52.0800 hc         1 699       0.030700
     50 H26         11.9220    44.5430    48.0560 ha         1 699       0.199000
     51 H28          9.0390    41.4050    47.1390 h4         1 699       0.116000
     52 H27         10.5340    43.3790    46.1880 ha         1 699       0.105000
@<TRIPOS>BOND
     1     1     2 1   
     2     2     3 1   
     3     2     4 1   
     4     2     5 1   
     5     5     6 ar  
     6     5     8 ar  
     7     6     7 ar  
     8     6    33 1   
     9     7    10 ar  
    10     7    35 1   
    11     8     9 ar  
    12     8    34 1   
    13     9    10 ar  
    14     9    36 1   
    15    10    11 1   
    16    11    12 2   
    17    11    13 1   
    18    13    14 1   
    19    13    27 1   
    20    14    15 1   
    21    14    18 1   
    22    14    22 1   
    23    15    16 1   
    24    15    17 1   
    25    18    19 1   
    26    18    38 1   
    27    18    39 1   
    28    19    20 1   
    29    19    21 1   
    30    19    42 1   
    31    20    43 1   
    32    20    44 1   
    33    20    45 1   
    34    21    46 1   
    35    21    47 1   
    36    21    48 1   
    37    22    23 1   
    38    22    40 1   
    39    22    41 1   
    40    23    24 1   
    41    23    27 1   
    42    23    49 1   
    43    24    25 1   
    44    24    26 1   
    45    27    28 1   
    46    27    37 1   
    47    28    29 1   
    48    28    30 2   
    49    29    32 1   
    50    30    31 1   
    51    30    50 1   
    52    31    32 2   
    53    31    52 1   
    54    32    51 1   
@<TRIPOS>SUBSTRUCTURE
     1 699         1 TEMP              0 ****  ****    0 ROOT
