@<TRIPOS>MOLECULE
699
   52    54     1     0     0
SMALL
abcg2


@<TRIPOS>ATOM
      1 F54          5.8180    41.3380    50.3510 f          1 699      -0.127000
      2 C51          5.5000    42.5660    50.8440 c3         1 699       0.341300
      3 F52          4.8720    42.3450    52.0190 f          1 699      -0.127000
      4 F53          4.5800    43.0820    50.0010 f          1 699      -0.127000
      5 C2           6.7090    43.4400    50.9890 ca         1 699      -0.208300
      6 C1           7.4800    43.3700    52.1450 ca         1 699      -0.074500
      7 C6           8.6460    44.1190    52.2420 ca         1 699      -0.085000
      8 C3           7.0900    44.2730    49.9390 ca         1 699      -0.074500
      9 C4           8.2470    45.0280    50.0480 ca         1 699      -0.085000
     10 C5           9.0400    44.9410    51.1900 ca         1 699      -0.061600
     11 C11         10.2880    45.7790    51.2640 c          1 699       0.601700
     12 O13         10.1820    46.9950    51.4550 o          1 699      -0.624100
     13 N12         11.4600    45.1500    51.0930 n          1 699      -0.352800
     14 C17         12.7490    45.8840    51.0510 c5         1 699      -0.009600
     15 C34         12.7150    47.0190    49.9550 c          1 699       0.735000
     16 O36         12.0600    46.7820    48.9130 o          1 699      -0.731000
     17 O35         13.4070    48.0410    50.1750 o          1 699      -0.731000
     18 C33         13.1430    46.4790    52.4150 c3         1 699      -0.067400
     19 C37         13.4350    45.5620    53.6130 c3         1 699      -0.062700
     20 C44         14.1470    46.3860    54.6920 c3         1 699      -0.080100
     21 C40         12.1880    44.9060    54.2110 c3         1 699      -0.080100
     22 C16         13.7220    44.7900    50.5600 c5         1 699      -0.057400
     23 C15         13.1150    43.4660    51.0040 c5         1 699      -0.185700
     24 C22         13.6130    42.1840    50.3060 c          1 699       0.718000
     25 O25         13.2920    41.1060    50.8720 o          1 699      -0.740000
     26 O24         14.2900    42.2970    49.2560 o          1 699      -0.740000
     27 C14         11.5870    43.6930    50.8620 c5         1 699       0.201000
     28 C20         10.9820    43.2520    49.5570 cc         1 699      -0.162300
     29 S29         10.0420    41.8000    49.4990 ss         1 699       0.156000
     30 C26         11.0120    43.8570    48.3310 cd         1 699      -0.111000
     31 C27         10.2800    43.1440    47.3410 cd         1 699      -0.136000
     32 C28          9.6970    42.0070    47.8280 cc         1 699      -0.285000
     33 H1           7.1810    42.7300    52.9630 ha         1 699       0.111500
     34 H3           6.4920    44.3290    49.0410 ha         1 699       0.111500
     35 H6           9.2520    44.0530    53.1360 ha         1 699       0.137000
     36 H4           8.5520    45.6670    49.2310 ha         1 699       0.137000
     37 H14         11.0820    43.1550    51.6620 h1         1 699       0.036700
     38 H331        12.3730    47.1950    52.7080 hc         1 699       0.056700
     39 H332        14.0390    47.0650    52.2150 hc         1 699       0.056700
     40 H161        14.7230    44.9430    50.9620 hc         1 699       0.058200
     41 H162        13.7880    44.8090    49.4740 hc         1 699       0.058200
     42 H37         14.1280    44.7760    53.3010 hc         1 699       0.053700
     43 H441        13.5110    47.2090    55.0320 hc         1 699       0.017533
     44 H442        15.0760    46.8180    54.3110 hc         1 699       0.017533
     45 H443        14.3890    45.7710    55.5620 hc         1 699       0.017533
     46 H401        11.7110    44.2080    53.5270 hc         1 699       0.017533
     47 H402        11.4490    45.6680    54.4760 hc         1 699       0.017533
     48 H403        12.4430    44.3560    55.1200 hc         1 699       0.017533
     49 H15         13.2990    43.3210    52.0680 hc         1 699       0.030700
     50 H26         11.5030    44.8090    48.1820 ha         1 699       0.199000
     51 H28          9.0940    41.2830    47.3030 h4         1 699       0.116000
     52 H27         10.1840    43.4660    46.3130 ha         1 699       0.105000
@<TRIPOS>BOND
     1     1     2 1   
     2     2     3 1   
     3     2     4 1   
     4     2     5 1   
     5     5     6 ar  
     6     5     8 ar  
     7     6     7 ar  
     8     6    33 1   
     9     7    10 ar  
    10     7    35 1   
    11     8     9 ar  
    12     8    34 1   
    13     9    10 ar  
    14     9    36 1   
    15    10    11 1   
    16    11    12 2   
    17    11    13 1   
    18    13    14 1   
    19    13    27 1   
    20    14    15 1   
    21    14    18 1   
    22    14    22 1   
    23    15    16 1   
    24    15    17 1   
    25    18    19 1   
    26    18    38 1   
    27    18    39 1   
    28    19    20 1   
    29    19    21 1   
    30    19    42 1   
    31    20    43 1   
    32    20    44 1   
    33    20    45 1   
    34    21    46 1   
    35    21    47 1   
    36    21    48 1   
    37    22    23 1   
    38    22    40 1   
    39    22    41 1   
    40    23    24 1   
    41    23    27 1   
    42    23    49 1   
    43    24    25 1   
    44    24    26 1   
    45    27    28 1   
    46    27    37 1   
    47    28    29 1   
    48    28    30 2   
    49    29    32 1   
    50    30    31 1   
    51    30    50 1   
    52    31    32 2   
    53    31    52 1   
    54    32    51 1   
@<TRIPOS>SUBSTRUCTURE
     1 699         1 TEMP              0 ****  ****    0 ROOT
