@<TRIPOS>MOLECULE
69A
   42    44     1     0     0
SMALL
No Charge or Current Charge


@<TRIPOS>ATOM
      1 CAI         -1.5990     0.8090    -3.4750 ca         1 69A      -0.072000
      2 CAJ         -2.9220     1.2540    -3.3650 ca         1 69A      -0.101000
      3 CAK         -3.4750     1.4940    -2.1040 ca         1 69A      -0.116000
      4 CAE         -2.7120     1.2770    -0.9470 ca         1 69A      -0.077000
      5 NAF         -3.3420     1.5190     0.3040 ns         1 69A      -0.171000
      6 CAG         -3.0560     0.9440     1.5260 c          1 69A       0.566000
      7 OAM         -3.3700     1.4680     2.5880 o          1 69A      -0.538000
      8 CAA         -2.3600    -0.4110     1.4520 c3         1 69A      -0.196400
      9 CAB         -0.8530    -0.2100     1.2600 c3         1 69A       0.192500
     10 CAL         -0.1240    -1.5420     1.0090 c3         1 69A      -0.092100
     11 NAC         -0.6040     0.7330     0.1520 nu         1 69A      -0.916200
     12 CAD         -1.3590     0.8320    -1.0410 ca         1 69A       0.220000
     13 CAH         -0.7890     0.5990    -2.3310 ca         1 69A      -0.103600
     14 CAN          0.6470     0.1590    -2.5800 c          1 69A       0.603700
     15 OAP          1.1030     0.0300    -3.7100 o          1 69A      -0.626100
     16 NAO          1.4370    -0.0880    -1.4930 ns         1 69A      -0.501900
     17 CAQ          2.8430    -0.4720    -1.5360 c3         1 69A       0.155300
     18 CAR          3.3910    -0.7010    -0.1360 ca         1 69A      -0.108300
     19 CAS          3.7300    -1.9990     0.2940 ca         1 69A      -0.096500
     20 CAT          4.2170    -2.2080     1.5960 ca         1 69A      -0.114000
     21 CAU          4.3690    -1.1220     2.4750 ca         1 69A      -0.103000
     22 CAV          4.0330     0.1740     2.0500 ca         1 69A      -0.114000
     23 CAW          3.5460     0.3850     0.7490 ca         1 69A      -0.096500
     24 H1          -1.1960     0.6370    -4.4720 ha         1 69A       0.148000
     25 H2          -3.5190     1.4150    -4.2600 ha         1 69A       0.124000
     26 H3          -4.5040     1.8380    -2.0260 ha         1 69A       0.122000
     27 H4          -3.9370     2.3370     0.3360 hn         1 69A       0.160000
     28 H5          -2.5440    -0.9800     2.3700 hc         1 69A       0.079700
     29 H6          -2.7250    -0.9620     0.5770 hc         1 69A       0.079700
     30 H7          -0.4420     0.2170     2.1880 h1         1 69A       0.065700
     31 H8          -0.4220    -1.9810     0.0490 hc         1 69A       0.047367
     32 H9           0.9600    -1.3920     1.0060 hc         1 69A       0.047367
     33 H10         -0.3560    -2.2620     1.8020 hc         1 69A       0.047367
     34 H11         -0.2310     1.6380     0.4550 hn         1 69A       0.442000
     35 H12          0.9760     0.0350    -0.5940 hn         1 69A       0.359500
     36 H13          2.9450    -1.3860    -2.1360 h1         1 69A       0.055200
     37 H14          3.4150     0.3250    -2.0290 h1         1 69A       0.055200
     38 H15          3.6110    -2.8470    -0.3770 ha         1 69A       0.115500
     39 H16          4.4760    -3.2130     1.9240 ha         1 69A       0.114000
     40 H17          4.7450    -1.2850     3.4820 ha         1 69A       0.113000
     41 H18          4.1480     1.0160     2.7300 ha         1 69A       0.114000
     42 H19          3.2840     1.3910     0.4280 ha         1 69A       0.115500
@<TRIPOS>BOND
     1     1     2 ar  
     2     1    13 ar  
     3     1    24 1   
     4     2     3 ar  
     5     2    25 1   
     6     3     4 ar  
     7     3    26 1   
     8     4     5 1   
     9     4    12 ar  
    10     5     6 1   
    11     5    27 1   
    12     6     7 2   
    13     6     8 1   
    14     8     9 1   
    15     8    28 1   
    16     8    29 1   
    17     9    10 1   
    18     9    11 1   
    19     9    30 1   
    20    10    31 1   
    21    10    32 1   
    22    10    33 1   
    23    11    12 1   
    24    11    34 1   
    25    12    13 ar  
    26    13    14 1   
    27    14    15 2   
    28    14    16 1   
    29    16    17 1   
    30    16    35 1   
    31    17    18 1   
    32    17    36 1   
    33    17    37 1   
    34    18    19 ar  
    35    18    23 ar  
    36    19    20 ar  
    37    19    38 1   
    38    20    21 ar  
    39    20    39 1   
    40    21    22 ar  
    41    21    40 1   
    42    22    23 ar  
    43    22    41 1   
    44    23    42 1   
@<TRIPOS>SUBSTRUCTURE
     1 69A         1 TEMP              0 ****  ****    0 ROOT
