@<TRIPOS>MOLECULE
69A
   42    44     1     0     0
SMALL
abcg2


@<TRIPOS>ATOM
      1 CAI         -1.4120     0.9880    -3.2480 ca         1 69A      -0.072000
      2 CAJ         -2.6380     1.6220    -3.1510 ca         1 69A      -0.101000
      3 CAK         -3.2130     1.8320    -1.9100 ca         1 69A      -0.116000
      4 CAE         -2.5500     1.4110    -0.7650 ca         1 69A      -0.077000
      5 NAF         -3.1400     1.6230     0.4900 ns         1 69A      -0.171000
      6 CAG         -3.2710     0.6870     1.4710 c          1 69A       0.566000
      7 OAM         -3.8310     0.9480     2.5220 o          1 69A      -0.538000
      8 CAA         -2.6910    -0.6660     1.1500 c3         1 69A      -0.196400
      9 CAB         -1.1530    -0.6630     1.1020 c3         1 69A       0.192500
     10 CAL         -0.6480    -1.9850     0.5460 c3         1 69A      -0.092100
     11 NAC         -0.6030     0.4800     0.3580 nu         1 69A      -0.916200
     12 CAD         -1.2840     0.8120    -0.8470 ca         1 69A       0.220000
     13 CAH         -0.7160     0.5850    -2.1090 ca         1 69A      -0.103600
     14 CAN          0.6360    -0.0350    -2.3590 c          1 69A       0.603700
     15 OAP          0.9540    -0.3860    -3.4910 o          1 69A      -0.626100
     16 NAO          1.4610    -0.1420    -1.3160 ns         1 69A      -0.501900
     17 CAQ          2.7720    -0.7480    -1.4290 c3         1 69A       0.155300
     18 CAR          3.4880    -0.6520    -0.1110 ca         1 69A      -0.108300
     19 CAS          3.6640    -1.7770     0.6880 ca         1 69A      -0.096500
     20 CAT          4.3090    -1.6810     1.9150 ca         1 69A      -0.114000
     21 CAU          4.7790    -0.4530     2.3580 ca         1 69A      -0.103000
     22 CAV          4.6050     0.6780     1.5680 ca         1 69A      -0.114000
     23 CAW          3.9630     0.5770     0.3420 ca         1 69A      -0.096500
     24 H1          -0.9760     0.8140    -4.2210 ha         1 69A       0.148000
     25 H2          -3.1540     1.9410    -4.0470 ha         1 69A       0.124000
     26 H3          -4.1810     2.3090    -1.8240 ha         1 69A       0.122000
     27 H4          -3.6300     2.4960     0.6330 hn         1 69A       0.160000
     28 H5          -3.0210    -1.3750     1.9080 hc         1 69A       0.079700
     29 H6          -3.0880    -1.0100     0.1900 hc         1 69A       0.079700
     30 H7          -0.7810    -0.5480     2.1210 h1         1 69A       0.065700
     31 H8          -0.9090    -2.1020    -0.5080 hc         1 69A       0.047367
     32 H9           0.4340    -2.0650     0.6410 hc         1 69A       0.047367
     33 H10         -1.0950    -2.8180     1.0900 hc         1 69A       0.047367
     34 H11         -0.5830     1.2950     0.9610 hn         1 69A       0.442000
     35 H12          1.0750     0.0920    -0.4020 hn         1 69A       0.359500
     36 H13          2.6860    -1.7950    -1.7330 h1         1 69A       0.055200
     37 H14          3.3450    -0.2400    -2.2080 h1         1 69A       0.055200
     38 H15          3.3010    -2.7390     0.3460 ha         1 69A       0.115500
     39 H16          4.4420    -2.5660     2.5230 ha         1 69A       0.114000
     40 H17          5.2830    -0.3750     3.3130 ha         1 69A       0.113000
     41 H18          4.9710     1.6380     1.9070 ha         1 69A       0.114000
     42 H19          3.8360     1.4610    -0.2720 ha         1 69A       0.115500
@<TRIPOS>BOND
     1     1     2 ar  
     2     1    13 ar  
     3     1    24 1   
     4     2     3 ar  
     5     2    25 1   
     6     3     4 ar  
     7     3    26 1   
     8     4     5 1   
     9     4    12 ar  
    10     5     6 1   
    11     5    27 1   
    12     6     7 2   
    13     6     8 1   
    14     8     9 1   
    15     8    28 1   
    16     8    29 1   
    17     9    10 1   
    18     9    11 1   
    19     9    30 1   
    20    10    31 1   
    21    10    32 1   
    22    10    33 1   
    23    11    12 1   
    24    11    34 1   
    25    12    13 ar  
    26    13    14 1   
    27    14    15 2   
    28    14    16 1   
    29    16    17 1   
    30    16    35 1   
    31    17    18 1   
    32    17    36 1   
    33    17    37 1   
    34    18    19 ar  
    35    18    23 ar  
    36    19    20 ar  
    37    19    38 1   
    38    20    21 ar  
    39    20    39 1   
    40    21    22 ar  
    41    21    40 1   
    42    22    23 ar  
    43    22    41 1   
    44    23    42 1   
@<TRIPOS>SUBSTRUCTURE
     1 69A         1 TEMP              0 ****  ****    0 ROOT
