@<TRIPOS>MOLECULE
69B
   48    52     1     0     0
SMALL
bcc


@<TRIPOS>ATOM
      1 CAY         -5.2340     2.4170     0.7000 cx         1 69B      -0.116900
      2 CAZ         -5.4060     1.5870     1.9290 cx         1 69B      -0.116900
      3 CAW         -4.1070     1.5380     1.1830 cx         1 69B      -0.147000
      4 CAV         -3.7230     0.3440     0.4130 cc         1 69B       0.395900
      5 CAR         -2.4480     0.0660    -0.1580 ca         1 69B      -0.231900
      6 CAS         -1.2070     0.7120    -0.1910 ca         1 69B      -0.045000
      7 NAU         -4.5600    -0.6260     0.1330 nd         1 69B      -0.524100
      8 NAT         -3.8970    -1.5400    -0.5930 na         1 69B       0.104900
      9 CAX         -4.5820    -2.6850    -1.1300 c3         1 69B       0.053600
     10 CAQ         -2.6150    -1.1670    -0.8060 ca         1 69B      -0.028200
     11 CAP         -1.5660    -1.7770    -1.5070 ca         1 69B      -0.159000
     12 CAO         -0.3570    -1.1250    -1.5160 ca         1 69B      -0.050000
     13 CAN         -0.1580     0.1180    -0.8640 cp         1 69B      -0.072000
     14 CAJ          1.1510     0.8060    -0.9250 cp         1 69B       0.014000
     15 CAF          2.3370     0.1590    -0.5600 ca         1 69B       0.071600
     16 NAE          2.3300    -1.2000    -0.1630 nu         1 69B      -0.703600
     17 CAD          2.5370    -1.4270     1.2660 c3         1 69B       0.196500
     18 CAI          1.2510    -1.2150     2.0490 c3         1 69B      -0.086100
     19 CAC          3.6650    -0.5580     1.8630 c3         1 69B      -0.198400
     20 CAB          4.8850    -0.4700     0.9800 c          1 69B       0.709500
     21 OAH          5.9570    -0.9780     1.2640 o          1 69B      -0.619500
     22 NAA          4.7280     0.2410    -0.1720 ns         1 69B      -0.497100
     23 CAG          3.5450     0.8710    -0.5910 ca         1 69B       0.024600
     24 CAM          3.5880     2.1810    -1.0520 ca         1 69B      -0.151000
     25 CAL          2.4140     2.8050    -1.4410 ca         1 69B      -0.110000
     26 CAK          1.2060     2.1310    -1.3590 ca         1 69B      -0.135000
     27 H1          -5.7500     2.1060    -0.2000 hc         1 69B       0.076200
     28 H2          -5.1210     3.4870     0.8090 hc         1 69B       0.076200
     29 H3          -5.4120     2.0880     2.8890 hc         1 69B       0.076200
     30 H4          -6.0460     0.7170     1.8710 hc         1 69B       0.076200
     31 H5          -3.2700     2.0570     1.6370 hc         1 69B       0.083700
     32 H6          -1.0640     1.6600     0.3140 ha         1 69B       0.136000
     33 H7          -4.9970    -2.4800    -2.1180 h1         1 69B       0.052367
     34 H8          -3.8920    -3.5230    -1.2070 h1         1 69B       0.052367
     35 H9          -5.3900    -2.9660    -0.4590 h1         1 69B       0.052367
     36 H10         -1.6940    -2.7160    -2.0280 ha         1 69B       0.138000
     37 H11          0.4700    -1.5680    -2.0520 ha         1 69B       0.140000
     38 H12          3.0370    -1.7040    -0.6860 hn         1 69B       0.375800
     39 H13          2.8320    -2.4750     1.3590 h1         1 69B       0.061700
     40 H14          0.4580    -1.8570     1.6680 hc         1 69B       0.044367
     41 H15          1.4040    -1.4420     3.1050 hc         1 69B       0.044367
     42 H16          0.9090    -0.1810     1.9760 hc         1 69B       0.044367
     43 H17          3.2830     0.4520     2.0450 hc         1 69B       0.076200
     44 H18          3.9640    -0.9680     2.8270 hc         1 69B       0.076200
     45 H19          5.5670     0.4150    -0.7090 hn         1 69B       0.324500
     46 H20          4.5320     2.7090    -1.0930 ha         1 69B       0.138000
     47 H21          2.4420     3.8250    -1.8020 ha         1 69B       0.137000
     48 H22          0.2930     2.6280    -1.6620 ha         1 69B       0.141000
@<TRIPOS>BOND
     1     1     2 1   
     2     1     3 1   
     3     1    27 1   
     4     1    28 1   
     5     2     3 1   
     6     2    29 1   
     7     2    30 1   
     8     3     4 1   
     9     3    31 1   
    10     4     5 1   
    11     4     7 2   
    12     5     6 ar  
    13     5    10 ar  
    14     6    13 ar  
    15     6    32 1   
    16     7     8 1   
    17     8     9 1   
    18     8    10 1   
    19     9    33 1   
    20     9    34 1   
    21     9    35 1   
    22    10    11 ar  
    23    11    12 ar  
    24    11    36 1   
    25    12    13 ar  
    26    12    37 1   
    27    13    14 1   
    28    14    15 ar  
    29    14    26 ar  
    30    15    16 1   
    31    15    23 ar  
    32    16    17 1   
    33    16    38 1   
    34    17    18 1   
    35    17    19 1   
    36    17    39 1   
    37    18    40 1   
    38    18    41 1   
    39    18    42 1   
    40    19    20 1   
    41    19    43 1   
    42    19    44 1   
    43    20    21 2   
    44    20    22 1   
    45    22    23 1   
    46    22    45 1   
    47    23    24 ar  
    48    24    25 ar  
    49    24    46 1   
    50    25    26 ar  
    51    25    47 1   
    52    26    48 1   
@<TRIPOS>SUBSTRUCTURE
     1 69B         1 TEMP              0 ****  ****    0 ROOT
