@<TRIPOS>MOLECULE
69B
   48    52     1     0     0
SMALL
No Charge or Current Charge


@<TRIPOS>ATOM
      1 CAY         -4.2050     2.6530     0.7680 cx         1 69B      -0.116900
      2 CAZ         -5.4720     1.9970     1.2650 cx         1 69B      -0.116900
      3 CAW         -4.1490     1.2690     1.3780 cx         1 69B      -0.147000
      4 CAV         -3.8630     0.1060     0.5170 cc         1 69B       0.395900
      5 CAR         -2.5890    -0.1110    -0.1310 ca         1 69B      -0.231900
      6 CAS         -1.4040     0.6360    -0.1400 ca         1 69B      -0.027000
      7 NAU         -4.7240    -0.8910     0.2490 nd         1 69B      -0.524100
      8 NAT         -3.9860    -1.7330    -0.5790 na         1 69B       0.075600
      9 CAX         -4.5270    -2.9830    -1.1350 c3         1 69B       0.082900
     10 CAQ         -2.7070    -1.2790    -0.8120 ca         1 69B      -0.028200
     11 CAP         -1.6570    -1.8100    -1.5720 ca         1 69B      -0.141000
     12 CAO         -0.4470    -1.0830    -1.6050 ca         1 69B      -0.032000
     13 CAN         -0.2990     0.1420    -0.8850 cp         1 69B      -0.072000
     14 CAJ          0.9850     0.9050    -0.9200 cp         1 69B       0.014000
     15 CAF          2.2050     0.3520    -0.4290 ca         1 69B       0.210000
     16 NAE          2.1980    -0.9750     0.0640 nu         1 69B      -0.897200
     17 CAD          2.7240    -1.4590     1.3510 c3         1 69B       0.196500
     18 CAI          1.5480    -1.6290     2.3330 c3         1 69B      -0.086100
     19 CAC          3.8030    -0.5260     1.9050 c3         1 69B      -0.198400
     20 CAB          4.9020    -0.3560     0.8650 c          1 69B       0.567000
     21 OAH          5.9440    -0.9990     0.8920 o          1 69B      -0.544000
     22 NAA          4.6580     0.6160    -0.0810 ns         1 69B      -0.171000
     23 CAG          3.4040     1.1190    -0.5140 ca         1 69B      -0.068000
     24 CAM          3.3760     2.4110    -1.0690 ca         1 69B      -0.133000
     25 CAL          2.1710     2.9660    -1.5180 ca         1 69B      -0.092000
     26 CAK          0.9860     2.2210    -1.4390 ca         1 69B      -0.117000
     27 H1          -4.0700     2.7430    -0.3080 hc         1 69B       0.076200
     28 H2          -3.7990     3.4790     1.3470 hc         1 69B       0.076200
     29 H3          -5.9180     2.3820     2.1800 hc         1 69B       0.076200
     30 H4          -6.1870     1.6510     0.5220 hc         1 69B       0.076200
     31 H5          -3.7120     1.1790     2.3690 hc         1 69B       0.083700
     32 H6          -1.3260     1.5680     0.4160 ha         1 69B       0.118000
     33 H7          -4.5020    -2.9360    -2.2300 h1         1 69B       0.052367
     34 H8          -3.9190    -3.8290    -0.7930 h1         1 69B       0.052367
     35 H9          -5.5620    -3.1240    -0.8030 h1         1 69B       0.052367
     36 H10         -1.7660    -2.7430    -2.1200 ha         1 69B       0.120000
     37 H11          0.3840    -1.4620    -2.1970 ha         1 69B       0.122000
     38 H12          1.3620    -1.4790    -0.2300 hn         1 69B       0.431000
     39 H13          3.1710    -2.4530     1.2000 h1         1 69B       0.061700
     40 H14          0.8090    -2.3350     1.9350 hc         1 69B       0.044367
     41 H15          1.9030    -2.0190     3.2940 hc         1 69B       0.044367
     42 H16          1.0460    -0.6710     2.5140 hc         1 69B       0.044367
     43 H17          3.3270     0.4400     2.1080 hc         1 69B       0.076200
     44 H18          4.2210    -0.9500     2.8240 hc         1 69B       0.076200
     45 H19          5.4430     0.8520    -0.6740 hn         1 69B       0.158000
     46 H20          4.2930     2.9930    -1.1410 ha         1 69B       0.120000
     47 H21          2.1550     3.9710    -1.9350 ha         1 69B       0.119000
     48 H22          0.0580     2.6550    -1.8020 ha         1 69B       0.123000
@<TRIPOS>BOND
     1     1     2 1   
     2     1     3 1   
     3     1    27 1   
     4     1    28 1   
     5     2     3 1   
     6     2    29 1   
     7     2    30 1   
     8     3     4 1   
     9     3    31 1   
    10     4     5 1   
    11     4     7 2   
    12     5     6 ar  
    13     5    10 ar  
    14     6    13 ar  
    15     6    32 1   
    16     7     8 1   
    17     8     9 1   
    18     8    10 1   
    19     9    33 1   
    20     9    34 1   
    21     9    35 1   
    22    10    11 ar  
    23    11    12 ar  
    24    11    36 1   
    25    12    13 ar  
    26    12    37 1   
    27    13    14 1   
    28    14    15 ar  
    29    14    26 ar  
    30    15    16 1   
    31    15    23 ar  
    32    16    17 1   
    33    16    38 1   
    34    17    18 1   
    35    17    19 1   
    36    17    39 1   
    37    18    40 1   
    38    18    41 1   
    39    18    42 1   
    40    19    20 1   
    41    19    43 1   
    42    19    44 1   
    43    20    21 2   
    44    20    22 1   
    45    22    23 1   
    46    22    45 1   
    47    23    24 ar  
    48    24    25 ar  
    49    24    46 1   
    50    25    26 ar  
    51    25    47 1   
    52    26    48 1   
@<TRIPOS>SUBSTRUCTURE
     1 69B         1 TEMP              0 ****  ****    0 ROOT
