@<TRIPOS>MOLECULE
69C
   38    41     1     0     0
SMALL
bcc


@<TRIPOS>ATOM
      1 S1          -3.5420    -1.3790     0.1100 ss         1 69C      -0.071000
      2 C2           0.2170    -0.3640    -0.8810 cc         1 69C      -0.030300
      3 C3          -1.1960    -0.2120    -0.8170 cc         1 69C      -0.192600
      4 C5          -1.8330    -1.2320    -0.1550 cd         1 69C       0.078800
      5 C7           1.9940    -2.0280    -0.1100 cd         1 69C       0.396800
      6 C9           3.7860    -3.1180     0.5590 cc         1 69C      -0.135300
      7 C10         -3.6180    -2.8450     1.1630 c3         1 69C      -0.079000
      8 C11          0.6460     2.6620    -0.1050 ca         1 69C      -0.111300
      9 C12          1.8510     3.3410     0.0620 ca         1 69C      -0.114500
     10 C13          2.2000     3.8890     1.2880 ca         1 69C      -0.128500
     11 C15          0.1350     3.0970     2.2150 ca         1 69C      -0.128500
     12 C4          -1.8820     0.9530    -1.3820 c          1 69C       0.738100
     13 N           -1.0680     1.9620    -1.7590 ns         1 69C      -0.565900
     14 S           -0.6880    -2.3890     0.3970 ss         1 69C      -0.078800
     15 C6           0.6510    -1.4990    -0.2640 cd         1 69C      -0.092600
     16 N2           2.9830    -1.6440    -0.9070 nc         1 69C      -0.515800
     17 N1           4.0460    -2.3080    -0.4780 na         1 69C       0.000400
     18 C8           2.4500    -2.9690     0.8400 cd         1 69C      -0.305300
     19 C1           1.0110     0.6700    -1.6050 c6         1 69C      -0.018100
     20 C            0.3490     2.0460    -1.4600 c6         1 69C       0.171000
     21 C16         -0.2110     2.5510     0.9850 ca         1 69C      -0.114500
     22 C14          1.3390     3.7680     2.3720 ca         1 69C      -0.125000
     23 H1           4.5490    -3.7270     1.0140 h4         1 69C       0.173000
     24 H2          -3.2480    -3.7320     0.6510 h1         1 69C       0.069700
     25 H3          -3.0830    -2.6970     2.0990 h1         1 69C       0.069700
     26 H4          -4.6730    -2.9940     1.3870 h1         1 69C       0.069700
     27 H5           2.5270     3.4430    -0.7800 ha         1 69C       0.132500
     28 H6           3.1380     4.4180     1.3940 ha         1 69C       0.130500
     29 H7          -0.5440     2.9990     3.0520 ha         1 69C       0.130500
     30 H8          -1.5190     2.8060    -2.0800 hn         1 69C       0.317500
     31 H10          1.8900    -3.4530     1.6240 ha         1 69C       0.167000
     32 H11          2.0380     0.7150    -1.2490 hc         1 69C       0.074700
     33 H12          1.0590     0.4110    -2.6670 hc         1 69C       0.074700
     34 H13          0.7870     2.6960    -2.2190 h1         1 69C       0.059700
     35 H14         -1.1620     2.0420     0.8950 ha         1 69C       0.132500
     36 H15          1.6050     4.1970     3.3300 ha         1 69C       0.130000
     37 H9           4.9320    -2.1810    -0.9410 hn         1 69C       0.321700
     38 O           -3.1020     0.9960    -1.4980 o          1 69C      -0.633500
@<TRIPOS>BOND
     1     1     4 1   
     2     1     7 1   
     3     2     3 1   
     4     2    15 2   
     5     2    19 1   
     6     3     4 2   
     7     3    12 1   
     8     4    14 1   
     9     5    15 1   
    10     5    16 2   
    11     5    18 1   
    12     6    17 1   
    13     6    18 2   
    14     6    23 1   
    15     7    24 1   
    16     7    25 1   
    17     7    26 1   
    18     8     9 ar  
    19     8    20 1   
    20     8    21 ar  
    21     9    10 ar  
    22     9    27 1   
    23    10    22 ar  
    24    10    28 1   
    25    11    21 ar  
    26    11    22 ar  
    27    11    29 1   
    28    12    13 1   
    29    12    38 2   
    30    13    20 1   
    31    13    30 1   
    32    14    15 1   
    33    16    17 1   
    34    17    37 1   
    35    18    31 1   
    36    19    20 1   
    37    19    32 1   
    38    19    33 1   
    39    20    34 1   
    40    21    35 1   
    41    22    36 1   
@<TRIPOS>SUBSTRUCTURE
     1 69C         1 TEMP              0 ****  ****    0 ROOT
