@<TRIPOS>MOLECULE
69C
   38    41     1     0     0
SMALL
No Charge or Current Charge


@<TRIPOS>ATOM
      1 S1          -3.5120    -1.5920    -0.3090 ss         1 69C       0.008000
      2 C2           0.3290    -0.5300    -0.8460 cc         1 69C      -0.030300
      3 C3          -1.0920    -0.3690    -0.9260 cc         1 69C      -0.192600
      4 C5          -1.7510    -1.4950    -0.4700 cd         1 69C      -0.193000
      5 C7           2.0610    -2.2710    -0.2400 cd         1 69C       0.331500
      6 C9           3.7130    -3.7190     0.2370 cc         1 69C      -0.168000
      7 C10         -3.7430    -2.2900     1.3800 c3         1 69C      -0.031100
      8 C11          0.7060     2.7220    -0.0260 ca         1 69C      -0.111300
      9 C12          1.2260     4.0330    -0.0270 ca         1 69C      -0.096500
     10 C13          1.3750     4.7420     1.1770 ca         1 69C      -0.110500
     11 C15          0.4790     2.8470     2.4060 ca         1 69C      -0.110500
     12 C4          -1.7290     0.8730    -1.4660 c          1 69C       0.595600
     13 N           -0.8700     1.9160    -1.7050 ns         1 69C      -0.498900
     14 S           -0.6830    -2.7460     0.1610 ss         1 69C       0.211000
     15 C6           0.7070    -1.7680    -0.3370 cd         1 69C      -0.237500
     16 N2           3.1490    -1.6420    -0.6450 nc         1 69C      -0.515800
     17 N1           4.1650    -2.5380    -0.3460 na         1 69C       0.000800
     18 C8           2.3610    -3.5430     0.3000 cd         1 69C      -0.222000
     19 C1           1.2290     0.5770    -1.3620 c6         1 69C      -0.018100
     20 C            0.5490     1.9680    -1.3570 c6         1 69C       0.171000
     21 C16          0.3290     2.1360     1.2030 ca         1 69C      -0.096500
     22 C14          1.0030     4.1490     2.3940 ca         1 69C      -0.107000
     23 H1           4.3610    -4.5360     0.5360 h4         1 69C       0.155000
     24 H2          -3.3210    -3.3010     1.4270 h1         1 69C       0.069700
     25 H3          -3.2400    -1.6490     2.1140 h1         1 69C       0.069700
     26 H4          -4.8140    -2.3360     1.6120 h1         1 69C       0.069700
     27 H5           1.5180     4.5060    -0.9630 ha         1 69C       0.114500
     28 H6           1.7790     5.7520     1.1660 ha         1 69C       0.112500
     29 H7           0.1870     2.3870     3.3480 ha         1 69C       0.112500
     30 H8          -1.2990     2.7560    -2.0690 hn         1 69C       0.317500
     31 H10          1.6510    -4.2590     0.6970 ha         1 69C       0.149000
     32 H11          2.1510     0.6670    -0.7770 hc         1 69C       0.074700
     33 H12          1.5390     0.3390    -2.3880 hc         1 69C       0.074700
     34 H13          1.0460     2.5660    -2.1340 h1         1 69C       0.059700
     35 H14         -0.0830     1.1310     1.2330 ha         1 69C       0.114500
     36 H15          1.1180     4.6990     3.3260 ha         1 69C       0.112000
     37 H9           5.1390    -2.3130    -0.5520 hn         1 69C       0.372000
     38 O           -2.9190     1.0240    -1.6930 o          1 69C      -0.558000
@<TRIPOS>BOND
     1     1     4 1   
     2     1     7 1   
     3     2     3 1   
     4     2    15 2   
     5     2    19 1   
     6     3     4 2   
     7     3    12 1   
     8     4    14 1   
     9     5    15 1   
    10     5    16 2   
    11     5    18 1   
    12     6    17 1   
    13     6    18 2   
    14     6    23 1   
    15     7    24 1   
    16     7    25 1   
    17     7    26 1   
    18     8     9 ar  
    19     8    20 1   
    20     8    21 ar  
    21     9    10 ar  
    22     9    27 1   
    23    10    22 ar  
    24    10    28 1   
    25    11    21 ar  
    26    11    22 ar  
    27    11    29 1   
    28    12    13 1   
    29    12    38 2   
    30    13    20 1   
    31    13    30 1   
    32    14    15 1   
    33    16    17 1   
    34    17    37 1   
    35    18    31 1   
    36    19    20 1   
    37    19    32 1   
    38    19    33 1   
    39    20    34 1   
    40    21    35 1   
    41    22    36 1   
@<TRIPOS>SUBSTRUCTURE
     1 69C         1 TEMP              0 ****  ****    0 ROOT
