@<TRIPOS>MOLECULE
69D
   45    47     1     0     0
SMALL
No Charge or Current Charge


@<TRIPOS>ATOM
      1 C05         -0.9890    -0.7950    -0.3920 c5         1 69D       0.278600
      2 C07         -2.3240    -0.2190     0.0450 ca         1 69D      -0.090300
      3 C08         -3.0810     0.0980    -1.0600 ca         1 69D      -0.122300
      4 C10          0.1380     0.2530    -0.2510 ca         1 69D      -0.084300
      5 C11         -2.3270    -0.2620    -2.3070 c5         1 69D       0.202900
      6 C13         -2.8280    -0.0160     1.3420 ca         1 69D      -0.086000
      7 C14         -4.3660     0.6480    -0.9410 ca         1 69D      -0.049000
      8 C15          0.8450     0.7530    -1.3720 ca         1 69D      -0.096000
      9 C16          0.5040     0.7270     1.0300 ca         1 69D      -0.096000
     10 C17         -4.1160     0.5390     1.4900 ca         1 69D      -0.071000
     11 C18         -4.8870     0.8750     0.3510 ca         1 69D      -0.011000
     12 C19          1.8720     1.7000    -1.2150 ca         1 69D      -0.086500
     13 C20          1.5300     1.6730     1.1880 ca         1 69D      -0.086500
     14 C21          2.2130     2.1610     0.0650 ca         1 69D      -0.015900
     15 C24         -6.2000     1.4370     0.5090 cg         1 69D       0.319000
     16 Br           3.6120     3.4470     0.2780 br         1 69D      -0.097100
     17 O02         -1.2280    -1.0920    -1.8110 os         1 69D      -0.448000
     18 N03          2.1010    -4.9100     0.0830 n3         1 69D      -0.711600
     19 N04         -7.2690     1.8920     0.6290 n1         1 69D      -0.445000
     20 C06         -0.6520    -2.1310     0.3250 c3         1 69D      -0.060400
     21 C09          0.6530    -2.8170    -0.1490 c3         1 69D      -0.075400
     22 C12          0.9370    -4.1420     0.5940 c3         1 69D       0.166800
     23 C22          3.3930    -4.1920     0.1980 c3         1 69D       0.149600
     24 C23          2.1720    -6.2660     0.6740 c3         1 69D       0.149600
     25 H1          -2.9350    -0.8320    -3.0210 h1         1 69D       0.062700
     26 H2          -1.9220     0.6320    -2.8000 h1         1 69D       0.062700
     27 H4          -2.2440    -0.2800     2.2190 ha         1 69D       0.124000
     28 H5          -4.9480     0.8890    -1.8290 ha         1 69D       0.132000
     29 H6           0.6130     0.4100    -2.3770 ha         1 69D       0.121500
     30 H7          -0.0060     0.3600     1.9160 ha         1 69D       0.121500
     31 H8          -4.5160     0.7040     2.4890 ha         1 69D       0.129000
     32 H9           2.4050     2.0730    -2.0870 ha         1 69D       0.129500
     33 H10          1.7960     2.0260     2.1820 ha         1 69D       0.129500
     34 H13         -0.5800    -1.9610     1.4060 hc         1 69D       0.049700
     35 H14         -1.4850    -2.8300     0.1860 hc         1 69D       0.049700
     36 H15          0.5880    -3.0200    -1.2250 hc         1 69D       0.059200
     37 H16          1.4920    -2.1270     0.0000 hc         1 69D       0.059200
     38 H17          0.0350    -4.7650     0.5110 h1         1 69D       0.026700
     39 H18          1.0750    -3.9230     1.6620 h1         1 69D       0.026700
     40 H19          3.6110    -3.9420     1.2450 h1         1 69D       0.030033
     41 H20          4.2150    -4.8120    -0.1840 h1         1 69D       0.030033
     42 H21          3.3860    -3.2630    -0.3860 h1         1 69D       0.030033
     43 H22          1.2360    -6.8140     0.5030 h1         1 69D       0.030033
     44 H23          2.9880    -6.8450     0.2210 h1         1 69D       0.030033
     45 H24          2.3470    -6.2130     1.7570 h1         1 69D       0.030033
@<TRIPOS>BOND
     1     1     2 1   
     2     1     4 1   
     3     1    17 1   
     4     1    20 1   
     5     2     3 ar  
     6     2     6 ar  
     7     3     5 1   
     8     3     7 ar  
     9     4     8 ar  
    10     4     9 ar  
    11     5    17 1   
    12     5    25 1   
    13     5    26 1   
    14     6    10 ar  
    15     6    27 1   
    16     7    11 ar  
    17     7    28 1   
    18     8    12 ar  
    19     8    29 1   
    20     9    13 ar  
    21     9    30 1   
    22    10    11 ar  
    23    10    31 1   
    24    11    15 1   
    25    12    14 ar  
    26    12    32 1   
    27    13    14 ar  
    28    13    33 1   
    29    14    16 1   
    30    15    19 3   
    31    18    22 1   
    32    18    23 1   
    33    18    24 1   
    34    20    21 1   
    35    20    34 1   
    36    20    35 1   
    37    21    22 1   
    38    21    36 1   
    39    21    37 1   
    40    22    38 1   
    41    22    39 1   
    42    23    40 1   
    43    23    41 1   
    44    23    42 1   
    45    24    43 1   
    46    24    44 1   
    47    24    45 1   
@<TRIPOS>SUBSTRUCTURE
     1 69D         1 TEMP              0 ****  ****    0 ROOT
