@<TRIPOS>MOLECULE
69D
   45    47     1     0     0
SMALL
abcg2


@<TRIPOS>ATOM
      1 C05         -0.9880    -0.8280    -0.4090 c5         1 69D       0.278600
      2 C07         -2.3060    -0.2460     0.0540 ca         1 69D      -0.090300
      3 C08         -3.0670     0.0640    -1.0610 ca         1 69D      -0.122300
      4 C10          0.1290     0.1990    -0.2450 ca         1 69D      -0.084300
      5 C11         -2.3000    -0.3250    -2.2830 c5         1 69D       0.202900
      6 C13         -2.7850    -0.0150     1.3330 ca         1 69D      -0.086000
      7 C14         -4.3180     0.6310    -0.9380 ca         1 69D      -0.049000
      8 C15          0.8110     0.7040    -1.3460 ca         1 69D      -0.096000
      9 C16          0.5030     0.6370     1.0220 ca         1 69D      -0.096000
     10 C17         -4.0440     0.5470     1.4800 ca         1 69D      -0.071000
     11 C18         -4.8000     0.8720     0.3510 ca         1 69D      -0.011000
     12 C19          1.8330     1.6320    -1.1920 ca         1 69D      -0.086500
     13 C20          1.5210     1.5600     1.1960 ca         1 69D      -0.086500
     14 C21          2.1800     2.0550     0.0800 ca         1 69D      -0.015900
     15 C24         -6.0940     1.4490     0.5180 cg         1 69D       0.319000
     16 BR           3.5690     3.3150     0.3000 br         1 69D      -0.097100
     17 O02         -1.2220    -1.0970    -1.7810 os         1 69D      -0.448000
     18 N03          2.0800    -4.8050     0.0580 n3         1 69D      -0.711600
     19 N04         -7.1390     1.9170     0.6530 n1         1 69D      -0.445000
     20 C06         -0.6440    -2.1420     0.2960 c3         1 69D      -0.060400
     21 C09          0.6310    -2.8020    -0.2130 c3         1 69D      -0.075400
     22 C12          0.9320    -4.0760     0.5650 c3         1 69D       0.166800
     23 C22          3.3240    -4.0950     0.2670 c3         1 69D       0.149600
     24 C23          2.1510    -6.1290     0.6380 c3         1 69D       0.149600
     25 H1          -2.8810    -0.9330    -2.9790 h1         1 69D       0.062700
     26 H2          -1.9440     0.5600    -2.8270 h1         1 69D       0.062700
     27 H4          -2.2120    -0.2660     2.2150 ha         1 69D       0.124000
     28 H5          -4.9160     0.8760    -1.8060 ha         1 69D       0.132000
     29 H6           0.5650     0.3730    -2.3450 ha         1 69D       0.121500
     30 H7           0.0090     0.2580     1.9080 ha         1 69D       0.121500
     31 H8          -4.4440     0.7330     2.4670 ha         1 69D       0.129000
     32 H9           2.3480     2.0080    -2.0660 ha         1 69D       0.129500
     33 H10          1.7900     1.8800     2.1940 ha         1 69D       0.129500
     34 H13         -0.5490    -1.9460     1.3690 hc         1 69D       0.049700
     35 H14         -1.4950    -2.8210     0.1840 hc         1 69D       0.049700
     36 H15          0.5330    -3.0490    -1.2730 hc         1 69D       0.059200
     37 H16          1.4600    -2.0950    -0.1270 hc         1 69D       0.059200
     38 H17          0.0630    -4.7370     0.4960 h1         1 69D       0.026700
     39 H18          1.0490    -3.8330     1.6370 h1         1 69D       0.026700
     40 H19          3.5370    -3.9020     1.3310 h1         1 69D       0.030033
     41 H20          4.1530    -4.6760    -0.1380 h1         1 69D       0.030033
     42 H21          3.3190    -3.1350    -0.2490 h1         1 69D       0.030033
     43 H22          1.2330    -6.6810     0.4300 h1         1 69D       0.030033
     44 H23          2.9810    -6.6850     0.1990 h1         1 69D       0.030033
     45 H24          2.2980    -6.1200     1.7300 h1         1 69D       0.030033
@<TRIPOS>BOND
     1     1     2 1   
     2     1     4 1   
     3     1    17 1   
     4     1    20 1   
     5     2     3 ar  
     6     2     6 ar  
     7     3     5 1   
     8     3     7 ar  
     9     4     8 ar  
    10     4     9 ar  
    11     5    17 1   
    12     5    25 1   
    13     5    26 1   
    14     6    10 ar  
    15     6    27 1   
    16     7    11 ar  
    17     7    28 1   
    18     8    12 ar  
    19     8    29 1   
    20     9    13 ar  
    21     9    30 1   
    22    10    11 ar  
    23    10    31 1   
    24    11    15 1   
    25    12    14 ar  
    26    12    32 1   
    27    13    14 ar  
    28    13    33 1   
    29    14    16 1   
    30    15    19 3   
    31    18    22 1   
    32    18    23 1   
    33    18    24 1   
    34    20    21 1   
    35    20    34 1   
    36    20    35 1   
    37    21    22 1   
    38    21    36 1   
    39    21    37 1   
    40    22    38 1   
    41    22    39 1   
    42    23    40 1   
    43    23    41 1   
    44    23    42 1   
    45    24    43 1   
    46    24    44 1   
    47    24    45 1   
@<TRIPOS>SUBSTRUCTURE
     1 69D         1 TEMP              0 ****  ****    0 ROOT
