@<TRIPOS>MOLECULE
69E
   51    55     1     0     0
SMALL
No Charge or Current Charge


@<TRIPOS>ATOM
      1 C4           4.2530    -0.7710     2.0440 c3         1 69E      -0.198400
      2 C5           5.4260    -0.6070     1.0870 c          1 69E       0.568000
      3 C11          1.5150    -1.1790    -2.3400 ca         1 69E      -0.116000
      4 C8           3.9160    -1.0250    -0.8830 ca         1 69E      -0.068000
      5 C9           3.8090    -1.8830    -1.9920 ca         1 69E      -0.133000
      6 C10          2.6090    -1.9720    -2.7100 ca         1 69E      -0.092000
      7 C12          1.5980    -0.2800    -1.2510 cp         1 69E       0.014000
      8 C13          2.8060    -0.2190    -0.4920 ca         1 69E       0.208000
      9 C1           3.9410     1.7290     2.5480 c3         1 69E      -0.098100
     10 C2           3.3210     0.4440     1.9640 c3         1 69E       0.193500
     11 O6           6.5320    -0.2300     1.4520 o          1 69E      -0.545000
     12 N7           5.1670    -0.9770    -0.2150 ns         1 69E      -0.170000
     13 N14          2.8870     0.7010     0.5800 nu         1 69E      -0.895200
     14 C15          0.4140     0.5720    -0.9280 cp         1 69E      -0.074000
     15 C16          0.5010     1.9940    -0.9720 ca         1 69E      -0.031000
     16 C17         -0.6150     2.7990    -0.6720 ca         1 69E      -0.142000
     17 C18         -1.8110     2.1520    -0.3380 ca         1 69E      -0.031200
     18 C19         -1.9310     0.7940    -0.2990 ca         1 69E      -0.224900
     19 C20         -0.8300    -0.0310    -0.5940 ca         1 69E      -0.024000
     20 C21         -3.3200     0.5410     0.0800 cc         1 69E       0.459500
     21 N22         -3.9910     1.6940     0.2560 nd         1 69E      -0.535100
     22 N23         -3.0410     2.6690    -0.0080 na         1 69E       0.078600
     23 C24         -3.3340     4.1090     0.0650 c3         1 69E       0.083900
     24 C25         -3.9690    -0.7340     0.2620 cc         1 69E      -0.221900
     25 C26         -3.4500    -2.0310     0.1280 cc         1 69E       0.259900
     26 N27         -4.3310    -2.9810     0.3710 nd         1 69E      -0.530800
     27 N28         -5.4770    -2.2620     0.6790 na         1 69E       0.132800
     28 C29         -5.2800    -0.8800     0.6190 cd         1 69E      -0.137000
     29 C30         -6.7300    -2.9500     1.0230 c3         1 69E       0.072900
     30 H1           3.6550    -1.6400     1.7490 hc         1 69E       0.075700
     31 H2           4.6160    -0.8940     3.0710 hc         1 69E       0.075700
     32 H3           0.5940    -1.2400    -2.9160 ha         1 69E       0.123000
     33 H4           4.6580    -2.4930    -2.2930 ha         1 69E       0.120000
     34 H5           2.5310    -2.6460    -3.5600 ha         1 69E       0.119000
     35 H6           4.8120     2.0520     1.9650 hc         1 69E       0.045700
     36 H7           3.2080     2.5450     2.5470 hc         1 69E       0.045700
     37 H8           4.2610     1.5660     3.5840 hc         1 69E       0.045700
     38 H9           2.4350     0.2010     2.5700 h1         1 69E       0.074700
     39 H10          5.9770    -1.0310    -0.8180 hn         1 69E       0.158000
     40 H11          2.1560     1.4100     0.5240 hn         1 69E       0.428000
     41 H12          1.4400     2.4680    -1.2510 ha         1 69E       0.122000
     42 H13         -0.5450     3.8840    -0.7060 ha         1 69E       0.119000
     43 H14         -0.8930    -1.1100    -0.5680 ha         1 69E       0.118000
     44 H15         -3.1570     4.5670    -0.9160 h1         1 69E       0.052367
     45 H16         -4.3810     4.2640     0.3520 h1         1 69E       0.052367
     46 H17         -2.6810     4.5780     0.8100 h1         1 69E       0.052367
     47 H18         -2.4540    -2.3400    -0.1420 h4         1 69E       0.037100
     48 H19         -6.0570    -0.1520     0.8260 h4         1 69E       0.163000
     49 H20         -6.5740    -3.5720     1.9120 h1         1 69E       0.056367
     50 H21         -7.5140    -2.2110     1.2300 h1         1 69E       0.056367
     51 H22         -7.0420    -3.5830     0.1840 h1         1 69E       0.056367
@<TRIPOS>BOND
     1     1     2 1   
     2     1    10 1   
     3     1    30 1   
     4     1    31 1   
     5     2    11 2   
     6     2    12 1   
     7     3     6 ar  
     8     3     7 ar  
     9     3    32 1   
    10     4     5 ar  
    11     4     8 ar  
    12     4    12 1   
    13     5     6 ar  
    14     5    33 1   
    15     6    34 1   
    16     7     8 ar  
    17     7    14 1   
    18     8    13 1   
    19     9    10 1   
    20     9    35 1   
    21     9    36 1   
    22     9    37 1   
    23    10    13 1   
    24    10    38 1   
    25    12    39 1   
    26    13    40 1   
    27    14    15 ar  
    28    14    19 ar  
    29    15    16 ar  
    30    15    41 1   
    31    16    17 ar  
    32    16    42 1   
    33    17    18 ar  
    34    17    22 1   
    35    18    19 ar  
    36    18    20 1   
    37    19    43 1   
    38    20    21 2   
    39    20    24 1   
    40    21    22 1   
    41    22    23 1   
    42    23    44 1   
    43    23    45 1   
    44    23    46 1   
    45    24    25 1   
    46    24    28 2   
    47    25    26 2   
    48    25    47 1   
    49    26    27 1   
    50    27    28 1   
    51    27    29 1   
    52    28    48 1   
    53    29    49 1   
    54    29    50 1   
    55    29    51 1   
@<TRIPOS>SUBSTRUCTURE
     1 69E         1 TEMP              0 ****  ****    0 ROOT
