@<TRIPOS>MOLECULE
69E
   51    55     1     0     0
SMALL
bcc


@<TRIPOS>ATOM
      1 C4           3.9520    -0.7790     1.8950 c3         1 69E      -0.198400
      2 C5           5.2540    -0.6820     1.1380 c          1 69E       0.710500
      3 C11          1.5380    -1.1880    -2.2600 ca         1 69E      -0.134000
      4 C8           3.9450    -0.8750    -0.9320 ca         1 69E       0.024600
      5 C9           3.8340    -1.8200    -1.9440 ca         1 69E      -0.151000
      6 C10          2.6280    -1.9680    -2.6110 ca         1 69E      -0.110000
      7 C12          1.6420    -0.2140    -1.2660 cp         1 69E       0.014000
      8 C13          2.8680    -0.0360    -0.6160 ca         1 69E       0.069600
      9 C1           3.5240     1.6060     2.6510 c3         1 69E      -0.098100
     10 C2           3.0670     0.4790     1.7410 c3         1 69E       0.193500
     11 O6           6.3410    -0.5700     1.6800 o          1 69E      -0.620500
     12 N7           5.1480    -0.7450    -0.2190 ns         1 69E      -0.496100
     13 N14          3.0180     0.9700     0.3680 nu         1 69E      -0.701600
     14 C15          0.4610     0.6100    -0.9260 cp         1 69E      -0.074000
     15 C16          0.5350     2.0250    -0.9530 ca         1 69E      -0.049000
     16 C17         -0.5480     2.8220    -0.6770 ca         1 69E      -0.160000
     17 C18         -1.7500     2.1790    -0.3540 ca         1 69E      -0.031200
     18 C19         -1.8590     0.7790    -0.3370 ca         1 69E      -0.224900
     19 C20         -0.7350    -0.0070    -0.6220 ca         1 69E      -0.042000
     20 C21         -3.2200     0.5380     0.0190 cc         1 69E       0.459500
     21 N22         -3.8460     1.6810     0.1950 nd         1 69E      -0.535100
     22 N23         -2.9650     2.6650    -0.0130 na         1 69E       0.107900
     23 C24         -3.3870     4.0410     0.0120 c3         1 69E       0.054600
     24 C25         -3.9050    -0.7260     0.2020 cc         1 69E      -0.287200
     25 C26         -3.5300    -2.0150    -0.2250 cc         1 69E       0.325200
     26 N27         -4.4290    -2.9180     0.1180 nd         1 69E      -0.530800
     27 N28         -5.3790    -2.2460     0.7580 na         1 69E       0.111400
     28 C29         -5.1160    -0.9340     0.8370 cd         1 69E      -0.104300
     29 C30         -6.5220    -2.9440     1.2960 c3         1 69E       0.043600
     30 H1           3.4030    -1.6540     1.5360 hc         1 69E       0.075700
     31 H2           4.1710    -0.9520     2.9480 hc         1 69E       0.075700
     32 H3           0.5970    -1.3140    -2.7810 ha         1 69E       0.141000
     33 H4           4.6810    -2.4480    -2.1930 ha         1 69E       0.138000
     34 H5           2.5370    -2.7040    -3.3980 ha         1 69E       0.137000
     35 H6           4.5420     1.9250     2.4140 hc         1 69E       0.045700
     36 H7           2.8680     2.4700     2.5500 hc         1 69E       0.045700
     37 H8           3.5090     1.2880     3.6930 hc         1 69E       0.045700
     38 H9           2.0530     0.1880     2.0300 h1         1 69E       0.074700
     39 H10          6.0130    -0.8160    -0.7360 hn         1 69E       0.324500
     40 H11          3.8570     1.5070     0.1750 hn         1 69E       0.372800
     41 H12          1.4740     2.4920    -1.2130 ha         1 69E       0.140000
     42 H13         -0.4690     3.9000    -0.7140 ha         1 69E       0.137000
     43 H14         -0.7900    -1.0880    -0.5880 ha         1 69E       0.136000
     44 H15         -3.7560     4.3640    -0.9620 h1         1 69E       0.052367
     45 H16         -4.1770     4.1590     0.7490 h1         1 69E       0.052367
     46 H17         -2.5510     4.6750     0.2980 h1         1 69E       0.052367
     47 H18         -2.6540    -2.3140    -0.7800 h4         1 69E       0.037100
     48 H19         -5.7830    -0.2460     1.3310 h4         1 69E       0.181000
     49 H20         -6.2130    -3.6400     2.0730 h1         1 69E       0.056367
     50 H21         -7.2080    -2.2190     1.7240 h1         1 69E       0.056367
     51 H22         -7.0340    -3.4910     0.5070 h1         1 69E       0.056367
@<TRIPOS>BOND
     1     1     2 1   
     2     1    10 1   
     3     1    30 1   
     4     1    31 1   
     5     2    11 2   
     6     2    12 1   
     7     3     6 ar  
     8     3     7 ar  
     9     3    32 1   
    10     4     5 ar  
    11     4     8 ar  
    12     4    12 1   
    13     5     6 ar  
    14     5    33 1   
    15     6    34 1   
    16     7     8 ar  
    17     7    14 1   
    18     8    13 1   
    19     9    10 1   
    20     9    35 1   
    21     9    36 1   
    22     9    37 1   
    23    10    13 1   
    24    10    38 1   
    25    12    39 1   
    26    13    40 1   
    27    14    15 ar  
    28    14    19 ar  
    29    15    16 ar  
    30    15    41 1   
    31    16    17 ar  
    32    16    42 1   
    33    17    18 ar  
    34    17    22 1   
    35    18    19 ar  
    36    18    20 1   
    37    19    43 1   
    38    20    21 2   
    39    20    24 1   
    40    21    22 1   
    41    22    23 1   
    42    23    44 1   
    43    23    45 1   
    44    23    46 1   
    45    24    25 1   
    46    24    28 2   
    47    25    26 2   
    48    25    47 1   
    49    26    27 1   
    50    27    28 1   
    51    27    29 1   
    52    28    48 1   
    53    29    49 1   
    54    29    50 1   
    55    29    51 1   
@<TRIPOS>SUBSTRUCTURE
     1 69E         1 TEMP              0 ****  ****    0 ROOT
