@<TRIPOS>MOLECULE
69F
   49    52     1     0     0
SMALL
abcg2


@<TRIPOS>ATOM
      1 C4           3.8900     1.6970     1.3450 c3         1 69F      -0.198400
      2 C5           5.2110     1.0220     1.0710 c          1 69F       0.568000
      3 C11          1.5730    -2.4480     0.4340 ca         1 69F      -0.111000
      4 C8           3.9420    -1.0320     0.6120 ca         1 69F      -0.070000
      5 C9           3.8350    -2.2750     1.2230 ca         1 69F      -0.130000
      6 C10          2.6480    -2.9820     1.1270 ca         1 69F      -0.094000
      7 C12          1.6770    -1.2160    -0.2110 cp         1 69F       0.005000
      8 C13          2.8800    -0.5070    -0.1380 ca         1 69F       0.215000
      9 C1           3.5170     3.1010    -0.7370 c3         1 69F      -0.099100
     10 C2           3.0430     1.9030     0.0680 c3         1 69F       0.194500
     11 O6           6.2880     1.5880     1.1570 o          1 69F      -0.545000
     12 N7           5.1320    -0.2940     0.7290 ns         1 69F      -0.171000
     13 N14          3.0280     0.7320    -0.8040 nu         1 69F      -0.897200
     14 C15          0.5200    -0.7040    -0.9800 cp         1 69F       0.004000
     15 C16          0.6360    -0.3740    -2.3330 ca         1 69F      -0.107000
     16 C17         -0.4820     0.0350    -3.0350 ca         1 69F      -0.081000
     17 C18         -1.7270     0.1380    -2.4200 ca         1 69F      -0.196000
     18 C19         -1.8450    -0.1850    -1.0730 ca         1 69F       0.136100
     19 C20         -0.7190    -0.6080    -0.3620 ca         1 69F      -0.139000
     20 O21         -2.9940    -0.1190    -0.3680 os         1 69F      -0.344100
     21 C22         -4.1840     0.2630    -1.0460 c3         1 69F       0.211900
     22 C23         -5.2960     0.2390    -0.0410 ca         1 69F      -0.096300
     23 C24         -6.0110    -0.9320     0.1900 ca         1 69F      -0.084000
     24 C25         -7.0220    -0.9660     1.1400 ca         1 69F      -0.115000
     25 C26         -7.3250     0.1750     1.8720 ca         1 69F      -0.098000
     26 C27         -6.6150     1.3480     1.6490 ca         1 69F      -0.115000
     27 C28         -5.6050     1.3780     0.6970 ca         1 69F      -0.084000
     28 H1           3.3260     1.0930     2.0610 hc         1 69F       0.075700
     29 H2           4.0790     2.6600     1.8190 hc         1 69F       0.075700
     30 H3           0.6480    -3.0070     0.3690 ha         1 69F       0.125000
     31 H4           4.6700    -2.6740     1.7850 ha         1 69F       0.120000
     32 H5           2.5560    -3.9480     1.6050 ha         1 69F       0.119000
     33 H6           4.5430     2.9650    -1.0900 hc         1 69F       0.046033
     34 H7           2.8800     3.2550    -1.6080 hc         1 69F       0.046033
     35 H8           3.4930     4.0070    -0.1330 hc         1 69F       0.046033
     36 H9           2.0170     2.0910     0.3980 h1         1 69F       0.073700
     37 H10          6.0060    -0.7960     0.6580 hn         1 69F       0.158000
     38 H11          3.8770     0.7190    -1.3620 hn         1 69F       0.430000
     39 H12          1.5910    -0.4520    -2.8320 ha         1 69F       0.123000
     40 H13         -0.3950     0.2780    -4.0860 ha         1 69F       0.111000
     41 H14         -2.5770     0.4640    -3.0030 ha         1 69F       0.115000
     42 H15         -0.8250    -0.8530     0.6880 ha         1 69F       0.127000
     43 H16         -4.0760     1.2660    -1.4740 h1         1 69F       0.040700
     44 H17         -4.3940    -0.4300    -1.8670 h1         1 69F       0.040700
     45 H18         -5.7810    -1.8230    -0.3840 ha         1 69F       0.114500
     46 H19         -7.5750    -1.8810     1.3080 ha         1 69F       0.114000
     47 H20         -8.1140     0.1520     2.6110 ha         1 69F       0.113000
     48 H21         -6.8490     2.2410     2.2150 ha         1 69F       0.114000
     49 H22         -5.0560     2.2960     0.5220 ha         1 69F       0.114500
@<TRIPOS>BOND
     1     1     2 1   
     2     1    10 1   
     3     1    28 1   
     4     1    29 1   
     5     2    11 2   
     6     2    12 1   
     7     3     6 ar  
     8     3     7 ar  
     9     3    30 1   
    10     4     5 ar  
    11     4     8 ar  
    12     4    12 1   
    13     5     6 ar  
    14     5    31 1   
    15     6    32 1   
    16     7     8 ar  
    17     7    14 1   
    18     8    13 1   
    19     9    10 1   
    20     9    33 1   
    21     9    34 1   
    22     9    35 1   
    23    10    13 1   
    24    10    36 1   
    25    12    37 1   
    26    13    38 1   
    27    14    15 ar  
    28    14    19 ar  
    29    15    16 ar  
    30    15    39 1   
    31    16    17 ar  
    32    16    40 1   
    33    17    18 ar  
    34    17    41 1   
    35    18    19 ar  
    36    18    20 1   
    37    19    42 1   
    38    20    21 1   
    39    21    22 1   
    40    21    43 1   
    41    21    44 1   
    42    22    23 ar  
    43    22    27 ar  
    44    23    24 ar  
    45    23    45 1   
    46    24    25 ar  
    47    24    46 1   
    48    25    26 ar  
    49    25    47 1   
    50    26    27 ar  
    51    26    48 1   
    52    27    49 1   
@<TRIPOS>SUBSTRUCTURE
     1 69F         1 TEMP              0 ****  ****    0 ROOT
