@<TRIPOS>MOLECULE
69F
   49    52     1     0     0
SMALL
No Charge or Current Charge


@<TRIPOS>ATOM
      1 C4           4.1710     1.8860     1.3550 c3         1 69F      -0.198400
      2 C5           5.3950     1.0570     0.9890 c          1 69F       0.568000
      3 C11          1.6400    -2.5410     0.4260 ca         1 69F      -0.111000
      4 C8           3.9710    -1.0080     0.7820 ca         1 69F      -0.070000
      5 C9           3.8900    -2.3130     1.3000 ca         1 69F      -0.130000
      6 C10          2.7240    -3.0730     1.1360 ca         1 69F      -0.094000
      7 C12          1.6990    -1.2450    -0.1380 cp         1 69F       0.005000
      8 C13          2.8700    -0.4540     0.0640 ca         1 69F       0.215000
      9 C1           3.9130     3.0500    -0.9200 c3         1 69F      -0.099100
     10 C2           3.2840     2.1070     0.1250 c3         1 69F       0.194500
     11 O6           6.4940     1.5550     0.7750 o          1 69F      -0.545000
     12 N7           5.1890    -0.3050     0.9750 ns         1 69F      -0.171000
     13 N14          2.9330     0.8320    -0.5230 nu         1 69F      -0.897200
     14 C15          0.5270    -0.7450    -0.9210 cp         1 69F       0.004000
     15 C16          0.6580    -0.3570    -2.2760 ca         1 69F      -0.107000
     16 C17         -0.4500     0.1040    -3.0060 ca         1 69F      -0.081000
     17 C18         -1.7130     0.1790    -2.3950 ca         1 69F      -0.196000
     18 C19         -1.8690    -0.2150    -1.0490 ca         1 69F       0.136100
     19 C20         -0.7560    -0.6750    -0.3280 ca         1 69F      -0.139000
     20 O21         -3.0840    -0.1690    -0.3970 os         1 69F      -0.344100
     21 C22         -4.2840     0.2860    -1.0450 c3         1 69F       0.211900
     22 C23         -5.4320     0.2080    -0.0470 ca         1 69F      -0.096300
     23 C24         -6.2040    -0.9660     0.0590 ca         1 69F      -0.084000
     24 C25         -7.2640    -1.0370     0.9800 ca         1 69F      -0.115000
     25 C26         -7.5580     0.0640     1.8010 ca         1 69F      -0.098000
     26 C27         -6.7900     1.2370     1.7020 ca         1 69F      -0.115000
     27 C28         -5.7300     1.3090     0.7810 ca         1 69F      -0.084000
     28 H1           3.5610     1.3390     2.0830 hc         1 69F       0.075700
     29 H2           4.4780     2.8520     1.7710 hc         1 69F       0.075700
     30 H3           0.7460    -3.1460     0.2880 ha         1 69F       0.125000
     31 H4           4.7320    -2.7380     1.8420 ha         1 69F       0.120000
     32 H5           2.6650    -4.0780     1.5490 ha         1 69F       0.119000
     33 H6           4.8240     2.6170    -1.3500 hc         1 69F       0.046033
     34 H7           3.2080     3.2440    -1.7370 hc         1 69F       0.046033
     35 H8           4.1720     4.0130    -0.4640 hc         1 69F       0.046033
     36 H9           2.3600     2.5850     0.4850 h1         1 69F       0.073700
     37 H10          6.0250    -0.8690     0.8980 hn         1 69F       0.158000
     38 H11          2.2400     0.9440    -1.2630 hn         1 69F       0.430000
     39 H12          1.6260    -0.4280    -2.7670 ha         1 69F       0.123000
     40 H13         -0.3300     0.3990    -4.0460 ha         1 69F       0.111000
     41 H14         -2.5540     0.5390    -2.9820 ha         1 69F       0.115000
     42 H15         -0.8830    -0.9740     0.7090 ha         1 69F       0.127000
     43 H16         -4.1690     1.3220    -1.3890 h1         1 69F       0.040700
     44 H17         -4.5150    -0.3400    -1.9170 h1         1 69F       0.040700
     45 H18         -5.9810    -1.8240    -0.5720 ha         1 69F       0.114500
     46 H19         -7.8560    -1.9460     1.0570 ha         1 69F       0.114000
     47 H20         -8.3780     0.0090     2.5140 ha         1 69F       0.113000
     48 H21         -7.0160     2.0900     2.3380 ha         1 69F       0.114000
     49 H22         -5.1390     2.2200     0.7120 ha         1 69F       0.114500
@<TRIPOS>BOND
     1     1     2 1   
     2     1    10 1   
     3     1    28 1   
     4     1    29 1   
     5     2    11 2   
     6     2    12 1   
     7     3     6 ar  
     8     3     7 ar  
     9     3    30 1   
    10     4     5 ar  
    11     4     8 ar  
    12     4    12 1   
    13     5     6 ar  
    14     5    31 1   
    15     6    32 1   
    16     7     8 ar  
    17     7    14 1   
    18     8    13 1   
    19     9    10 1   
    20     9    33 1   
    21     9    34 1   
    22     9    35 1   
    23    10    13 1   
    24    10    36 1   
    25    12    37 1   
    26    13    38 1   
    27    14    15 ar  
    28    14    19 ar  
    29    15    16 ar  
    30    15    39 1   
    31    16    17 ar  
    32    16    40 1   
    33    17    18 ar  
    34    17    41 1   
    35    18    19 ar  
    36    18    20 1   
    37    19    42 1   
    38    20    21 1   
    39    21    22 1   
    40    21    43 1   
    41    21    44 1   
    42    22    23 ar  
    43    22    27 ar  
    44    23    24 ar  
    45    23    45 1   
    46    24    25 ar  
    47    24    46 1   
    48    25    26 ar  
    49    25    47 1   
    50    26    27 ar  
    51    26    48 1   
    52    27    49 1   
@<TRIPOS>SUBSTRUCTURE
     1 69F         1 TEMP              0 ****  ****    0 ROOT
