@<TRIPOS>MOLECULE
69G
   46    48     1     0     0
SMALL
No Charge or Current Charge


@<TRIPOS>ATOM
      1 C4           3.1850    -1.6330    -1.3880 c3         1 69G       0.128200
      2 C14          3.5790     0.7000    -0.6350 c          1 69G       0.589600
      3 C6           1.3190    -0.2660    -0.4530 cc         1 69G      -0.054400
      4 C7           0.7530     0.8580     0.1400 cd         1 69G      -0.063400
      5 C8           1.6410     1.9960     0.2610 cd         1 69G      -0.032800
      6 C9           1.3560     3.3180     0.6700 cd         1 69G      -0.187000
      7 C10          2.5110     4.0530     0.6210 cc         1 69G      -0.154000
      8 C13          2.9580     1.9140    -0.0860 cc         1 69G      -0.258600
      9 C3           3.6310    -2.5960    -0.3080 c2         1 69G      -0.249200
     10 C2           2.8550    -3.5220     0.2780 c2         1 69G      -0.198200
     11 N5           2.6730    -0.3680    -0.8170 n          1 69G      -0.274000
     12 N11          3.5030     3.1770     0.1660 na         1 69G      -0.074000
     13 C16         -0.6920     0.8820     0.4760 ca         1 69G      -0.025800
     14 C17         -1.1730     1.6270     1.5720 ca         1 69G      -0.084000
     15 C18         -2.5400     1.6390     1.8870 ca         1 69G      -0.120000
     16 C19         -3.4490     0.8890     1.1260 ca         1 69G      -0.086000
     17 C20         -2.9920     0.0960     0.0510 ca         1 69G      -0.143600
     18 C21         -1.6160     0.1120    -0.2690 ca         1 69G      -0.067000
     19 C22         -3.9420    -0.7210    -0.8060 c          1 69G       0.614700
     20 O23         -3.7260    -0.8610    -2.0050 o          1 69G      -0.594100
     21 N24         -5.1240    -1.2410    -0.2260 n          1 69G      -0.408800
     22 C25         -5.1440    -1.6820     1.1890 c3         1 69G       0.086800
     23 C26         -6.1640    -1.8320    -1.0960 c3         1 69G       0.086800
     24 H1           4.0190    -1.4260    -2.0720 h1         1 69G       0.069200
     25 H2           2.3950    -2.0970    -1.9950 h1         1 69G       0.069200
     26 H3           0.7860    -1.1900    -0.6410 h4         1 69G       0.200000
     27 H4           0.3890     3.7180     0.9530 ha         1 69G       0.142000
     28 H5           2.7050     5.0940     0.8510 h4         1 69G       0.148000
     29 H6           4.6770    -2.4790    -0.0180 ha         1 69G       0.189000
     30 H7           2.7120    -4.3370     2.2760 hc         1 69G       0.043367
     31 H8           3.1880    -5.5170     1.0430 hc         1 69G       0.043367
     32 H9           4.3590    -4.3240     1.6260 hc         1 69G       0.043367
     33 H10          1.8080    -3.6350    -0.0130 ha         1 69G       0.162000
     34 H12          4.4770     3.4290     0.0140 hn         1 69G       0.365000
     35 H11         -0.4860     2.1710     2.2140 ha         1 69G       0.122000
     36 H13         -2.8970     2.2290     2.7280 ha         1 69G       0.115000
     37 H14         -4.5070     0.9430     1.3680 ha         1 69G       0.118000
     38 H15         -1.2720    -0.4680    -1.1210 ha         1 69G       0.127000
     39 H16         -5.6150    -2.6700     1.2680 h1         1 69G       0.041700
     40 H17         -4.1240    -1.7580     1.5880 h1         1 69G       0.041700
     41 H18         -5.7200    -0.9690     1.7930 h1         1 69G       0.041700
     42 H19         -5.8100    -2.7880    -1.5010 h1         1 69G       0.041700
     43 H20         -7.0850    -2.0030    -0.5220 h1         1 69G       0.041700
     44 H21         -6.3910    -1.1490    -1.9250 h1         1 69G       0.041700
     45 O15          4.7690     0.6390    -0.9210 o          1 69G      -0.576000
     46 C1           3.3050    -4.4750     1.3640 c3         1 69G      -0.059900
@<TRIPOS>BOND
     1     1     9 1   
     2     1    11 1   
     3     1    24 1   
     4     1    25 1   
     5     2     8 1   
     6     2    11 1   
     7     2    45 2   
     8     3     4 2   
     9     3    11 1   
    10     3    26 1   
    11     4     5 1   
    12     4    13 1   
    13     5     6 1   
    14     5     8 2   
    15     6     7 2   
    16     6    27 1   
    17     7    12 1   
    18     7    28 1   
    19     8    12 1   
    20     9    10 2   
    21     9    29 1   
    22    10    33 1   
    23    10    46 1   
    24    12    34 1   
    25    13    14 ar  
    26    13    18 ar  
    27    14    15 ar  
    28    14    35 1   
    29    15    16 ar  
    30    15    36 1   
    31    16    17 ar  
    32    16    37 1   
    33    17    18 ar  
    34    17    19 1   
    35    18    38 1   
    36    19    20 2   
    37    19    21 1   
    38    21    22 1   
    39    21    23 1   
    40    22    39 1   
    41    22    40 1   
    42    22    41 1   
    43    23    42 1   
    44    23    43 1   
    45    23    44 1   
    46    30    46 1   
    47    31    46 1   
    48    32    46 1   
@<TRIPOS>SUBSTRUCTURE
     1 69G         1 TEMP              0 ****  ****    0 ROOT
