@<TRIPOS>MOLECULE
69G
   46    48     1     0     0
SMALL
bcc


@<TRIPOS>ATOM
      1 C4           3.0150    -1.6770    -1.2060 c3         1 69G       0.128200
      2 C14          3.4450     0.6720    -0.6730 c          1 69G       0.732100
      3 C6           1.2280    -0.2650    -0.3610 cc         1 69G      -0.004400
      4 C7           0.6610     0.8760     0.1050 cd         1 69G      -0.063400
      5 C8           1.5180     2.0200     0.1870 cd         1 69G      -0.032800
      6 C9           1.3450     3.3770     0.5610 cd         1 69G      -0.205000
      7 C10          2.5670     3.9880     0.3970 cc         1 69G      -0.121300
      8 C13          2.8490     1.8780    -0.1940 cc         1 69G      -0.207900
      9 C3           3.4980    -2.5180    -0.0670 c2         1 69G      -0.199200
     10 C2           2.9180    -3.6570     0.3000 c2         1 69G      -0.148200
     11 N5           2.5370    -0.3670    -0.7530 n          1 69G      -0.341000
     12 N11          3.4650     3.0830    -0.0530 na         1 69G      -0.125100
     13 C16         -0.7590     0.9050     0.4930 ca         1 69G      -0.025800
     14 C17         -1.1730     1.5630     1.6530 ca         1 69G      -0.102000
     15 C18         -2.5090     1.5710     2.0220 ca         1 69G      -0.138000
     16 C19         -3.4540     0.9060     1.2540 ca         1 69G      -0.104000
     17 C20         -3.0570     0.2420     0.0970 ca         1 69G      -0.143600
     18 C21         -1.7220     0.2690    -0.2880 ca         1 69G      -0.085000
     19 C22         -4.0540    -0.3890    -0.8250 c          1 69G       0.681700
     20 O23         -4.0330    -0.1020    -2.0160 o          1 69G      -0.594100
     21 N24         -4.9650    -1.2250    -0.2910 n          1 69G      -0.475800
     22 C25         -4.8430    -1.8690     1.0020 c3         1 69G       0.086800
     23 C26         -6.0390    -1.7330    -1.1190 c3         1 69G       0.086800
     24 H1           3.8070    -1.5110    -1.9340 h1         1 69G       0.069200
     25 H2           2.1930    -2.1690    -1.7280 h1         1 69G       0.069200
     26 H3           0.6600    -1.1830    -0.4360 h4         1 69G       0.150000
     27 H4           0.4430     3.8600     0.9000 ha         1 69G       0.160000
     28 H5           2.8520     5.0120     0.5720 h4         1 69G       0.166000
     29 H6           4.3710    -2.1550     0.4690 ha         1 69G       0.139000
     30 H7           2.5890    -4.6400     2.1720 hc         1 69G       0.043367
     31 H8           3.6050    -5.5340     1.0630 hc         1 69G       0.043367
     32 H9           4.2620    -4.1320     1.9130 hc         1 69G       0.043367
     33 H10          2.0460    -3.9990    -0.2520 ha         1 69G       0.112000
     34 H12          4.4310     3.2720    -0.2630 hn         1 69G       0.314700
     35 H11         -0.4460     2.0580     2.2840 ha         1 69G       0.140000
     36 H13         -2.8160     2.0910     2.9200 ha         1 69G       0.133000
     37 H14         -4.4950     0.9180     1.5510 ha         1 69G       0.136000
     38 H15         -1.4250    -0.2080    -1.2140 ha         1 69G       0.145000
     39 H16         -4.9310    -2.9500     0.8740 h1         1 69G       0.041700
     40 H17         -3.8800    -1.6680     1.4590 h1         1 69G       0.041700
     41 H18         -5.6300    -1.5440     1.6840 h1         1 69G       0.041700
     42 H19         -5.7900    -2.7090    -1.5430 h1         1 69G       0.041700
     43 H20         -6.9340    -1.8470    -0.5090 h1         1 69G       0.041700
     44 H21         -6.2610    -1.0480    -1.9310 h1         1 69G       0.041700
     45 O15          4.6260     0.5430    -0.9910 o          1 69G      -0.651500
     46 C1           3.3740    -4.5290     1.4210 c3         1 69G      -0.059900
@<TRIPOS>BOND
     1     1     9 1   
     2     1    11 1   
     3     1    24 1   
     4     1    25 1   
     5     2     8 1   
     6     2    11 1   
     7     2    45 2   
     8     3     4 2   
     9     3    11 1   
    10     3    26 1   
    11     4     5 1   
    12     4    13 1   
    13     5     6 1   
    14     5     8 2   
    15     6     7 2   
    16     6    27 1   
    17     7    12 1   
    18     7    28 1   
    19     8    12 1   
    20     9    10 2   
    21     9    29 1   
    22    10    33 1   
    23    10    46 1   
    24    12    34 1   
    25    13    14 ar  
    26    13    18 ar  
    27    14    15 ar  
    28    14    35 1   
    29    15    16 ar  
    30    15    36 1   
    31    16    17 ar  
    32    16    37 1   
    33    17    18 ar  
    34    17    19 1   
    35    18    38 1   
    36    19    20 2   
    37    19    21 1   
    38    21    22 1   
    39    21    23 1   
    40    22    39 1   
    41    22    40 1   
    42    22    41 1   
    43    23    42 1   
    44    23    43 1   
    45    23    44 1   
    46    30    46 1   
    47    31    46 1   
    48    32    46 1   
@<TRIPOS>SUBSTRUCTURE
     1 69G         1 TEMP              0 ****  ****    0 ROOT
