@<TRIPOS>MOLECULE
69H
   45    46     1     0     0
SMALL
bcc


@<TRIPOS>ATOM
      1 CAV          8.6490     0.7760     0.7140 c3         1 69H      -0.088100
      2 CAU          7.6020     0.0160    -0.0870 c3         1 69H      -0.074400
      3 CAT          6.1760     0.4070     0.2820 c3         1 69H      -0.075400
      4 CAS          5.1200    -0.3410    -0.5210 c3         1 69H      -0.075400
      5 CAR          3.6960     0.0500    -0.1470 c3         1 69H      -0.072400
      6 CAP          2.6520    -0.6910    -0.9840 c3         1 69H      -0.028100
      7 CAL          1.2460    -0.3080    -0.6230 ca         1 69H      -0.074300
      8 CAM          0.5710    -0.9040     0.4330 ca         1 69H       0.103900
      9 FAQ          1.1870    -1.8760     1.1350 f          1 69H      -0.142900
     10 CAI         -0.7100    -0.5490     0.7970 ca         1 69H      -0.140000
     11 CAH          0.5780     0.6990    -1.3120 ca         1 69H      -0.141000
     12 CAB         -0.7150     1.0870    -0.9800 ca         1 69H       0.131100
     13 OAA         -1.3080     2.0590    -1.6980 oh         1 69H      -0.488100
     14 CAC         -1.3520     0.4480     0.0820 ca         1 69H       0.021100
     15 OAD         -2.6140     0.8600     0.4230 os         1 69H      -0.263200
     16 CAE         -3.6910     0.0860     0.0720 ca         1 69H       0.115100
     17 CAJ         -3.5990    -0.9850    -0.8050 ca         1 69H      -0.187000
     18 CAN         -4.7430    -1.7080    -1.1200 ca         1 69H      -0.100000
     19 CAO         -5.9630    -1.3620    -0.5630 ca         1 69H      -0.150000
     20 CAK         -6.0330    -0.2840     0.3110 ca         1 69H      -0.103000
     21 CAF         -4.9080     0.4590     0.6490 ca         1 69H      -0.094300
     22 CAG         -4.9880     1.6190     1.5950 c3         1 69H      -0.036800
     23 H1           8.5370     0.5940     1.7850 hc         1 69H       0.031700
     24 H2           9.6610     0.4830     0.4350 hc         1 69H       0.031700
     25 H3           8.5620     1.8530     0.5550 hc         1 69H       0.031700
     26 H4           7.7580     0.1920    -1.1560 hc         1 69H       0.036200
     27 H5           7.7310    -1.0600     0.0650 hc         1 69H       0.036200
     28 H6           6.0180     0.2270     1.3510 hc         1 69H       0.038700
     29 H7           6.0480     1.4860     0.1350 hc         1 69H       0.038700
     30 H8           5.2760    -0.1550    -1.5900 hc         1 69H       0.038200
     31 H9           5.2480    -1.4200    -0.3770 hc         1 69H       0.038200
     32 H10          3.5300    -0.1540     0.9150 hc         1 69H       0.045700
     33 H11          3.5640     1.1280    -0.2800 hc         1 69H       0.045700
     34 H12          2.8150    -0.4680    -2.0410 hc         1 69H       0.054200
     35 H13          2.7930    -1.7690    -0.8730 hc         1 69H       0.054200
     36 H14         -1.2070    -1.0410     1.6240 ha         1 69H       0.164000
     37 H15          1.0750     1.1930    -2.1390 ha         1 69H       0.153000
     38 H16         -2.1540     2.3020    -1.3020 ho         1 69H       0.444000
     39 H17         -2.6520    -1.2640    -1.2480 ha         1 69H       0.146000
     40 H18         -4.6700    -2.5430    -1.8050 ha         1 69H       0.133000
     41 H19         -6.8550    -1.9250    -0.8030 ha         1 69H       0.135000
     42 H20         -6.9860    -0.0110     0.7480 ha         1 69H       0.133000
     43 H21         -4.3420     1.4780     2.4630 hc         1 69H       0.044033
     44 H22         -4.6840     2.5540     1.1200 hc         1 69H       0.044033
     45 H23         -6.0060     1.7490     1.9570 hc         1 69H       0.044033
@<TRIPOS>BOND
     1     1     2 1   
     2     1    23 1   
     3     1    24 1   
     4     1    25 1   
     5     2     3 1   
     6     2    26 1   
     7     2    27 1   
     8     3     4 1   
     9     3    28 1   
    10     3    29 1   
    11     4     5 1   
    12     4    30 1   
    13     4    31 1   
    14     5     6 1   
    15     5    32 1   
    16     5    33 1   
    17     6     7 1   
    18     6    34 1   
    19     6    35 1   
    20     7     8 ar  
    21     7    11 ar  
    22     8     9 1   
    23     8    10 ar  
    24    10    14 ar  
    25    10    36 1   
    26    11    12 ar  
    27    11    37 1   
    28    12    13 1   
    29    12    14 ar  
    30    13    38 1   
    31    14    15 1   
    32    15    16 1   
    33    16    17 ar  
    34    16    21 ar  
    35    17    18 ar  
    36    17    39 1   
    37    18    19 ar  
    38    18    40 1   
    39    19    20 ar  
    40    19    41 1   
    41    20    21 ar  
    42    20    42 1   
    43    21    22 1   
    44    22    43 1   
    45    22    44 1   
    46    22    45 1   
@<TRIPOS>SUBSTRUCTURE
     1 69H         1 TEMP              0 ****  ****    0 ROOT
