@<TRIPOS>MOLECULE
69H
   45    46     1     0     0
SMALL
No Charge or Current Charge


@<TRIPOS>ATOM
      1 CAV          8.5050     0.5830     1.3300 c3         1 69H      -0.088100
      2 CAU          7.5570    -0.0280     0.2810 c3         1 69H      -0.074400
      3 CAT          6.0760     0.3430     0.5140 c3         1 69H      -0.075400
      4 CAS          5.1260    -0.2690    -0.5380 c3         1 69H      -0.075400
      5 CAR          3.6450     0.1020    -0.3040 c3         1 69H      -0.072400
      6 CAP          2.6930    -0.5090    -1.3540 c3         1 69H      -0.028100
      7 CAL          1.2380    -0.1240    -1.1020 ca         1 69H      -0.074300
      8 CAM          0.4370    -0.8500    -0.1920 ca         1 69H       0.139000
      9 FAQ          0.9500    -1.9070     0.4780 f          1 69H      -0.178000
     10 CAI         -0.8980    -0.4840     0.0360 ca         1 69H      -0.122000
     11 CAH          0.6800     0.9820    -1.7740 ca         1 69H      -0.123000
     12 CAB         -0.6560     1.3520    -1.5480 ca         1 69H       0.131100
     13 OAA         -1.1810     2.4280    -2.2040 oh         1 69H      -0.527100
     14 CAC         -1.4530     0.6140    -0.6510 ca         1 69H       0.021100
     15 OAD         -2.7600     1.0020    -0.4320 os         1 69H      -0.263200
     16 CAE         -3.7730     0.1050    -0.1670 ca         1 69H       0.115100
     17 CAJ         -3.8850    -1.0800    -0.9210 ca         1 69H      -0.169000
     18 CAN         -4.9240    -1.9880    -0.6580 ca         1 69H      -0.082000
     19 CAO         -5.8570    -1.7080     0.3540 ca         1 69H      -0.132000
     20 CAK         -5.7550    -0.5220     1.1010 ca         1 69H      -0.085000
     21 CAF         -4.7150     0.3950     0.8440 ca         1 69H      -0.094300
     22 CAG         -4.6090     1.6790     1.6580 c3         1 69H      -0.036800
     23 H1           8.2450     0.2340     2.3370 hc         1 69H       0.031700
     24 H2           9.5420     0.2930     1.1240 hc         1 69H       0.031700
     25 H3           8.4460     1.6780     1.3160 hc         1 69H       0.031700
     26 H4           7.8640     0.3110    -0.7170 hc         1 69H       0.036200
     27 H5           7.6650    -1.1190     0.2950 hc         1 69H       0.036200
     28 H6           5.7730     0.0040     1.5130 hc         1 69H       0.038700
     29 H7           5.9720     1.4350     0.5010 hc         1 69H       0.038700
     30 H8           5.4290     0.0700    -1.5370 hc         1 69H       0.038200
     31 H9           5.2300    -1.3620    -0.5250 hc         1 69H       0.038200
     32 H10          3.3430    -0.2360     0.6950 hc         1 69H       0.045700
     33 H11          3.5390     1.1940    -0.3180 hc         1 69H       0.045700
     34 H12          3.0030    -0.1790    -2.3530 hc         1 69H       0.054200
     35 H13          2.8030    -1.6010    -1.3520 hc         1 69H       0.054200
     36 H14         -1.4920    -1.0490     0.7490 ha         1 69H       0.146000
     37 H15          1.2830     1.5600    -2.4710 ha         1 69H       0.135000
     38 H16         -2.1140     2.5180    -1.9080 ho         1 69H       0.483000
     39 H17         -3.1700    -1.2940    -1.7110 ha         1 69H       0.128000
     40 H18         -5.0080    -2.9040    -1.2390 ha         1 69H       0.115000
     41 H19         -6.6620    -2.4100     0.5580 ha         1 69H       0.117000
     42 H20         -6.4860    -0.3160     1.8800 ha         1 69H       0.115000
     43 H21         -3.6430     1.7380     2.1730 hc         1 69H       0.044033
     44 H22         -4.6990     2.5610     1.0120 hc         1 69H       0.044033
     45 H23         -5.3940     1.7460     2.4200 hc         1 69H       0.044033
@<TRIPOS>BOND
     1     1     2 1   
     2     1    23 1   
     3     1    24 1   
     4     1    25 1   
     5     2     3 1   
     6     2    26 1   
     7     2    27 1   
     8     3     4 1   
     9     3    28 1   
    10     3    29 1   
    11     4     5 1   
    12     4    30 1   
    13     4    31 1   
    14     5     6 1   
    15     5    32 1   
    16     5    33 1   
    17     6     7 1   
    18     6    34 1   
    19     6    35 1   
    20     7     8 ar  
    21     7    11 ar  
    22     8     9 1   
    23     8    10 ar  
    24    10    14 ar  
    25    10    36 1   
    26    11    12 ar  
    27    11    37 1   
    28    12    13 1   
    29    12    14 ar  
    30    13    38 1   
    31    14    15 1   
    32    15    16 1   
    33    16    17 ar  
    34    16    21 ar  
    35    17    18 ar  
    36    17    39 1   
    37    18    19 ar  
    38    18    40 1   
    39    19    20 ar  
    40    19    41 1   
    41    20    21 ar  
    42    20    42 1   
    43    21    22 1   
    44    22    43 1   
    45    22    44 1   
    46    22    45 1   
@<TRIPOS>SUBSTRUCTURE
     1 69H         1 TEMP              0 ****  ****    0 ROOT
