@<TRIPOS>MOLECULE
69J
   32    33     1     0     0
SMALL
bcc


@<TRIPOS>ATOM
      1 OAH         -4.3090    -1.6670     0.4330 o          1 69J      -0.203000
      2 NAG         -3.3880    -1.2900    -0.2570 no         1 69J       0.323200
      3 OAM         -2.8150    -1.9850    -1.0600 o          1 69J      -0.203000
      4 CAF         -2.9710     0.0900    -0.1150 ca         1 69J      -0.205200
      5 CAL         -3.9520     1.0340     0.1640 ca         1 69J      -0.041000
      6 CAQ         -3.6090     2.3660     0.2910 ca         1 69J      -0.169000
      7 CAP         -2.2780     2.7400     0.1600 ca         1 69J      -0.056000
      8 CAK         -1.2960     1.8000    -0.0980 ca         1 69J      -0.211000
      9 CAE         -1.6270     0.4570    -0.2480 ca         1 69J       0.210100
     10 OAD         -0.7130    -0.4990    -0.5030 os         1 69J      -0.202200
     11 CAC          0.6110    -0.2370    -0.2510 ca         1 69J       0.070100
     12 CAJ          1.4880    -0.0960    -1.3100 ca         1 69J      -0.126000
     13 CAO          2.8280     0.0970    -1.0390 ca         1 69J       0.106900
     14 FAS          3.6750     0.2250    -2.0780 f          1 69J      -0.137900
     15 CAN          3.3290     0.1660     0.2500 ca         1 69J      -0.064300
     16 CAR          4.7970     0.3430     0.5210 c3         1 69J      -0.029100
     17 CAT          5.5840    -0.9540     0.3410 c3         1 69J      -0.088100
     18 CAI          2.4180     0.0240     1.2940 ca         1 69J      -0.195000
     19 CAB          1.0630    -0.1800     1.0670 ca         1 69J       0.118100
     20 OAA          0.1500    -0.3210     2.0420 oh         1 69J      -0.476100
     21 H1          -4.9830     0.7250     0.2640 ha         1 69J       0.166000
     22 H2          -4.3730     3.1040     0.4900 ha         1 69J       0.147000
     23 H3          -1.9950     3.7790     0.2610 ha         1 69J       0.140000
     24 H4          -0.2650     2.1160    -0.1860 ha         1 69J       0.152000
     25 H5           1.1280    -0.1420    -2.3300 ha         1 69J       0.173000
     26 H6           5.2110     1.1170    -0.1280 hc         1 69J       0.053200
     27 H7           4.9230     0.7010     1.5440 hc         1 69J       0.053200
     28 H8           6.6370    -0.8000     0.5780 hc         1 69J       0.040367
     29 H9           5.2040    -1.7370     0.9980 hc         1 69J       0.040367
     30 H10          5.5240    -1.3210    -0.6840 hc         1 69J       0.040367
     31 H11          2.7830     0.0740     2.3140 ha         1 69J       0.141000
     32 H12          0.5700    -0.2630     2.9090 ho         1 69J       0.434000
@<TRIPOS>BOND
     1     1     2 1   
     2     2     3 1   
     3     2     4 1   
     4     4     5 ar  
     5     4     9 ar  
     6     5     6 ar  
     7     5    21 1   
     8     6     7 ar  
     9     6    22 1   
    10     7     8 ar  
    11     7    23 1   
    12     8     9 ar  
    13     8    24 1   
    14     9    10 1   
    15    10    11 1   
    16    11    12 ar  
    17    11    19 ar  
    18    12    13 ar  
    19    12    25 1   
    20    13    14 1   
    21    13    15 ar  
    22    15    16 1   
    23    15    18 ar  
    24    16    17 1   
    25    16    26 1   
    26    16    27 1   
    27    17    28 1   
    28    17    29 1   
    29    17    30 1   
    30    18    19 ar  
    31    18    31 1   
    32    19    20 1   
    33    20    32 1   
@<TRIPOS>SUBSTRUCTURE
     1 69J         1 TEMP              0 ****  ****    0 ROOT
