@<TRIPOS>MOLECULE
69J
   32    33     1     0     0
SMALL
No Charge or Current Charge


@<TRIPOS>ATOM
      1 OAH         -4.2140    -1.8150     0.5310 o          1 69J      -0.393000
      2 NAG         -3.3660    -1.3570    -0.2460 no         1 69J       0.703200
      3 OAM         -2.9480    -1.9670    -1.2380 o          1 69J      -0.393000
      4 CAF         -3.0050     0.0780    -0.0990 ca         1 69J      -0.205200
      5 CAL         -3.9890     1.0040     0.3150 ca         1 69J      -0.023000
      6 CAQ         -3.6640     2.3640     0.4580 ca         1 69J      -0.151000
      7 CAP         -2.3600     2.8100     0.1930 ca         1 69J      -0.038000
      8 CAK         -1.3760     1.8930    -0.2080 ca         1 69J      -0.193000
      9 CAE         -1.6880     0.5240    -0.3470 ca         1 69J       0.210100
     10 OAD         -0.7090    -0.3730    -0.7220 os         1 69J      -0.202200
     11 CAC          0.6190    -0.2020    -0.3990 ca         1 69J       0.070100
     12 CAJ          1.5560    -0.1000    -1.4400 ca         1 69J      -0.108000
     13 CAO          2.9160     0.0730    -1.1450 ca         1 69J       0.142000
     14 FAS          3.8010     0.1720    -2.1630 f          1 69J      -0.173000
     15 CAN          3.3580     0.1410     0.1950 ca         1 69J      -0.064300
     16 CAR          4.8360     0.3250     0.5290 c3         1 69J      -0.029100
     17 CAT          5.6030    -1.0110     0.5300 c3         1 69J      -0.088100
     18 CAI          2.4150     0.0230     1.2370 ca         1 69J      -0.177000
     19 CAB          1.0500    -0.1510     0.9490 ca         1 69J       0.118100
     20 OAA          0.1600    -0.2830     1.9800 oh         1 69J      -0.515100
     21 H1          -5.0080     0.6770     0.5190 ha         1 69J       0.148000
     22 H2          -4.4270     3.0740     0.7720 ha         1 69J       0.129000
     23 H3          -2.1130     3.8650     0.3010 ha         1 69J       0.122000
     24 H4          -0.3700     2.2500    -0.4100 ha         1 69J       0.134000
     25 H5           1.2280    -0.1510    -2.4740 ha         1 69J       0.155000
     26 H6           5.3080     1.0080    -0.1870 hc         1 69J       0.053200
     27 H7           4.9470     0.7970     1.5120 hc         1 69J       0.053200
     28 H8           6.6580    -0.8470     0.7800 hc         1 69J       0.040367
     29 H9           5.1770    -1.7000     1.2700 hc         1 69J       0.040367
     30 H10          5.5520    -1.4880    -0.4560 hc         1 69J       0.040367
     31 H11          2.7520     0.0620     2.2710 ha         1 69J       0.123000
     32 H12          0.6500    -0.2290     2.8280 ho         1 69J       0.473000
@<TRIPOS>BOND
     1     1     2 1   
     2     2     3 1   
     3     2     4 1   
     4     4     5 ar  
     5     4     9 ar  
     6     5     6 ar  
     7     5    21 1   
     8     6     7 ar  
     9     6    22 1   
    10     7     8 ar  
    11     7    23 1   
    12     8     9 ar  
    13     8    24 1   
    14     9    10 1   
    15    10    11 1   
    16    11    12 ar  
    17    11    19 ar  
    18    12    13 ar  
    19    12    25 1   
    20    13    14 1   
    21    13    15 ar  
    22    15    16 1   
    23    15    18 ar  
    24    16    17 1   
    25    16    26 1   
    26    16    27 1   
    27    17    28 1   
    28    17    29 1   
    29    17    30 1   
    30    18    19 ar  
    31    18    31 1   
    32    19    20 1   
    33    20    32 1   
@<TRIPOS>SUBSTRUCTURE
     1 69J         1 TEMP              0 ****  ****    0 ROOT
