@<TRIPOS>MOLECULE
69K
   32    33     1     0     0
SMALL
bcc


@<TRIPOS>ATOM
      1 CAG          3.5540    -0.9920     1.7880 c3         1 69K      -0.137400
      2 CAF          3.3610    -0.1860     0.5410 ca         1 69K       0.413600
      3 NAK          4.4260     0.1100    -0.1900 nb         1 69K      -0.656000
      4 CAO          4.2830     0.8190    -1.3060 ca         1 69K       0.378200
      5 CAN          3.0570     1.2740    -1.7520 ca         1 69K      -0.222300
      6 CAJ          1.9260     0.9790    -1.0030 ca         1 69K      -0.156000
      7 CAE          2.0830     0.2420     0.1560 ca         1 69K       0.019800
      8 OAD          1.0620    -0.0850     0.9940 os         1 69K      -0.229200
      9 CAC         -0.2210    -0.0410     0.5200 ca         1 69K       0.081100
     10 CAI         -1.0850     0.9380     0.9770 ca         1 69K      -0.137000
     11 CAM         -2.3950     0.9290     0.5390 ca         1 69K       0.107900
     12 FAQ         -3.2280     1.8800     1.0050 f          1 69K      -0.140900
     13 CAL         -2.8800    -0.0100    -0.3550 ca         1 69K      -0.071300
     14 CAP         -4.3170    -0.0280    -0.7960 c3         1 69K      -0.028100
     15 CAR         -5.2280    -0.7110     0.2220 c3         1 69K      -0.087100
     16 CAH         -1.9840    -0.9780    -0.8020 ca         1 69K      -0.195000
     17 CAB         -0.6620    -1.0140    -0.3770 ca         1 69K       0.111100
     18 OAA          0.2290    -1.9360    -0.7840 oh         1 69K      -0.474100
     19 H1           3.2650    -0.4320     2.6800 hc         1 69K       0.054033
     20 H2           2.9510    -1.9010     1.7730 hc         1 69K       0.054033
     21 H3           4.6000    -1.2740     1.8870 hc         1 69K       0.054033
     22 H4           5.1870     1.0280    -1.8660 h4         1 69K       0.020100
     23 H5           2.9800     1.8490    -2.6640 ha         1 69K       0.140000
     24 H6           0.9520     1.3250    -1.3250 ha         1 69K       0.145000
     25 H7          -0.7370     1.6920     1.6720 ha         1 69K       0.168000
     26 H8          -4.6700     0.9880    -0.9850 hc         1 69K       0.052700
     27 H9          -4.3810    -0.5560    -1.7490 hc         1 69K       0.052700
     28 H10         -6.2540    -0.7460    -0.1430 hc         1 69K       0.039367
     29 H11         -4.9040    -1.7350     0.4100 hc         1 69K       0.039367
     30 H12         -5.2310    -0.1810     1.1750 hc         1 69K       0.039367
     31 H13         -2.3360    -1.7300    -1.5000 ha         1 69K       0.138000
     32 H14         -0.1870    -2.5570    -1.3920 ho         1 69K       0.429000
@<TRIPOS>BOND
     1     1     2 1   
     2     1    19 1   
     3     1    20 1   
     4     1    21 1   
     5     2     3 ar  
     6     2     7 ar  
     7     3     4 ar  
     8     4     5 ar  
     9     4    22 1   
    10     5     6 ar  
    11     5    23 1   
    12     6     7 ar  
    13     6    24 1   
    14     7     8 1   
    15     8     9 1   
    16     9    10 ar  
    17     9    17 ar  
    18    10    11 ar  
    19    10    25 1   
    20    11    12 1   
    21    11    13 ar  
    22    13    14 1   
    23    13    16 ar  
    24    14    15 1   
    25    14    26 1   
    26    14    27 1   
    27    15    28 1   
    28    15    29 1   
    29    15    30 1   
    30    16    17 ar  
    31    16    31 1   
    32    17    18 1   
    33    18    32 1   
@<TRIPOS>SUBSTRUCTURE
     1 69K         1 TEMP              0 ****  ****    0 ROOT
