@<TRIPOS>MOLECULE
69K
   32    33     1     0     0
SMALL
No Charge or Current Charge


@<TRIPOS>ATOM
      1 CAG          3.6320    -0.9940     1.8100 c3         1 69K      -0.137400
      2 CAF          3.4140    -0.1960     0.5340 ca         1 69K       0.348300
      3 NAK          4.5110    -0.0110    -0.2440 nb         1 69K      -0.656000
      4 CAO          4.3610     0.6940    -1.3900 ca         1 69K       0.312900
      5 CAN          3.1300     1.2390    -1.7990 ca         1 69K      -0.139000
      6 CAJ          1.9910     1.0500    -0.9960 ca         1 69K      -0.138000
      7 CAE          2.1330     0.3110     0.1960 ca         1 69K       0.085100
      8 OAD          1.0570     0.0990     1.0370 os         1 69K      -0.229200
      9 CAC         -0.2410     0.0500     0.5790 ca         1 69K       0.081100
     10 CAI         -1.1600     0.9940     1.0620 ca         1 69K      -0.119000
     11 CAM         -2.4900     0.9710     0.6160 ca         1 69K       0.143000
     12 FAQ         -3.3580     1.8930     1.0930 f          1 69K      -0.176000
     13 CAL         -2.9190    -0.0000    -0.3150 ca         1 69K      -0.071300
     14 CAP         -4.3640    -0.0390    -0.8040 c3         1 69K      -0.028100
     15 CAR         -5.2840    -0.8130     0.1590 c3         1 69K      -0.087100
     16 CAH         -1.9960    -0.9560    -0.7870 ca         1 69K      -0.177000
     17 CAB         -0.6610    -0.9390    -0.3440 ca         1 69K       0.111100
     18 OAA          0.2080    -1.8910    -0.8050 oh         1 69K      -0.513100
     19 H1           3.3920    -0.3890     2.6920 hc         1 69K       0.054033
     20 H2           2.9890    -1.8820     1.8260 hc         1 69K       0.054033
     21 H3           4.6700    -1.3340     1.9110 hc         1 69K       0.054033
     22 H4           5.2550     0.8290    -1.9970 h4         1 69K       0.020100
     23 H5           3.0680     1.8000    -2.7270 ha         1 69K       0.122000
     24 H6           1.0330     1.4700    -1.2920 ha         1 69K       0.127000
     25 H7          -0.8420     1.7470     1.7770 ha         1 69K       0.150000
     26 H8          -4.7530     0.9790    -0.9300 hc         1 69K       0.052700
     27 H9          -4.4180    -0.5050    -1.7950 hc         1 69K       0.052700
     28 H10         -6.3120    -0.8290    -0.2220 hc         1 69K       0.039367
     29 H11         -4.9420    -1.8490     0.2700 hc         1 69K       0.039367
     30 H12         -5.2920    -0.3430     1.1500 hc         1 69K       0.039367
     31 H13         -2.3240    -1.7140    -1.4950 ha         1 69K       0.120000
     32 H14         -0.2720    -2.4840    -1.4200 ho         1 69K       0.468000
@<TRIPOS>BOND
     1     1     2 1   
     2     1    19 1   
     3     1    20 1   
     4     1    21 1   
     5     2     3 ar  
     6     2     7 ar  
     7     3     4 ar  
     8     4     5 ar  
     9     4    22 1   
    10     5     6 ar  
    11     5    23 1   
    12     6     7 ar  
    13     6    24 1   
    14     7     8 1   
    15     8     9 1   
    16     9    10 ar  
    17     9    17 ar  
    18    10    11 ar  
    19    10    25 1   
    20    11    12 1   
    21    11    13 ar  
    22    13    14 1   
    23    13    16 ar  
    24    14    15 1   
    25    14    26 1   
    26    14    27 1   
    27    15    28 1   
    28    15    29 1   
    29    15    30 1   
    30    16    17 ar  
    31    16    31 1   
    32    17    18 1   
    33    18    32 1   
@<TRIPOS>SUBSTRUCTURE
     1 69K         1 TEMP              0 ****  ****    0 ROOT
