@<TRIPOS>MOLECULE
69M
   44    47     1     0     0
SMALL
abcg2


@<TRIPOS>ATOM
      1 C2          -3.1050     2.6930     0.3690 ca         1 69M      -0.184000
      2 C4          -3.2250     0.2750     0.2550 ca         1 69M      -0.163500
      3 C5          -4.5700     0.3890    -0.0950 ca         1 69M      -0.045500
      4 C6          -5.1800     1.6270    -0.2160 ca         1 69M      -0.184000
      5 C8          -1.2750    -1.4380     0.1010 cc         1 69M      -0.213000
      6 C9          -1.2250    -2.7760     0.4760 cd         1 69M       0.228000
      7 C12         -0.2000    -0.6880    -0.5500 ca         1 69M       0.010000
      8 C13         -0.4420     0.0670    -1.7010 ca         1 69M      -0.099000
      9 C14          0.5870     0.7660    -2.3090 ca         1 69M      -0.113000
     10 C15          1.8760     0.7160    -1.7960 ca         1 69M      -0.105000
     11 C1          -4.4500     2.7900     0.0150 ca         1 69M       0.143100
     12 C3          -2.5090     1.4500     0.4870 ca         1 69M      -0.045500
     13 O1          -4.9880     4.0210    -0.0850 oh         1 69M      -0.534100
     14 C7          -2.6030    -1.0440     0.4130 cc         1 69M       0.358500
     15 N10         -2.4440    -3.0800     0.9500 na         1 69M      -0.039200
     16 N11         -3.2940    -2.0420     0.9260 nd         1 69M      -0.522800
     17 C16          2.1480    -0.0360    -0.6530 cp         1 69M      -0.037000
     18 C17          1.0990    -0.7230    -0.0420 ca         1 69M      -0.108000
     19 C18          3.5130    -0.1020    -0.0900 cp         1 69M       0.007000
     20 C19          4.3280     1.0280    -0.0970 ca         1 69M      -0.168000
     21 C20          5.6250     0.9950     0.4240 ca         1 69M       0.289000
     22 C21          6.0980    -0.2080     0.9610 ca         1 69M      -0.176000
     23 C22          5.2880    -1.3310     0.9690 ca         1 69M      -0.072000
     24 C23          4.0010    -1.2920     0.4510 ca         1 69M      -0.146000
     25 N25          6.3940     2.1390     0.4650 nv         1 69M      -1.073000
     26 H1          -2.5340     3.5930     0.5610 ha         1 69M       0.120500
     27 H2          -5.1510    -0.5040    -0.2830 ha         1 69M       0.124500
     28 H3          -6.2270     1.6850    -0.4930 ha         1 69M       0.120500
     29 H4          -1.4390     0.1020    -2.1220 ha         1 69M       0.121000
     30 H5           0.3900     1.3430    -3.2040 ha         1 69M       0.112000
     31 H6           2.6740     1.2470    -2.2990 ha         1 69M       0.112000
     32 H7          -1.4680     1.3990     0.7800 ha         1 69M       0.124500
     33 H8          -5.9220     3.9610    -0.3160 ho         1 69M       0.464000
     34 H9          -2.7480    -3.9660     1.3200 hn         1 69M       0.371000
     35 H10          1.2910    -1.2660     0.8760 ha         1 69M       0.123000
     36 H11          3.9470     1.9630    -0.4930 ha         1 69M       0.114000
     37 H12          7.1000    -0.2580     1.3710 ha         1 69M       0.111000
     38 H13          5.6720    -2.2570     1.3790 ha         1 69M       0.109000
     39 H14          3.3930    -2.1880     0.4430 ha         1 69M       0.112000
     40 H15          0.5380    -3.4340    -0.2050 hn         1 69M       0.454000
     41 H16         -0.4670    -4.6410     0.3300 hn         1 69M       0.454000
     42 H17          6.1600     2.8480    -0.2120 hn         1 69M       0.446500
     43 H18          7.3900     1.9930     0.5210 hn         1 69M       0.446500
     44 N24         -0.1920    -3.6760     0.4470 nv         1 69M      -1.050000
@<TRIPOS>BOND
     1     1    11 ar  
     2     1    12 ar  
     3     1    26 1   
     4     2     3 ar  
     5     2    12 ar  
     6     2    14 1   
     7     3     4 ar  
     8     3    27 1   
     9     4    11 ar  
    10     4    28 1   
    11     5     6 2   
    12     5     7 1   
    13     5    14 1   
    14     6    15 1   
    15     6    44 1   
    16     7     8 ar  
    17     7    18 ar  
    18     8     9 ar  
    19     8    29 1   
    20     9    10 ar  
    21     9    30 1   
    22    10    17 ar  
    23    10    31 1   
    24    11    13 1   
    25    12    32 1   
    26    13    33 1   
    27    14    16 2   
    28    15    16 1   
    29    15    34 1   
    30    17    18 ar  
    31    17    19 1   
    32    18    35 1   
    33    19    20 ar  
    34    19    24 ar  
    35    20    21 ar  
    36    20    36 1   
    37    21    22 ar  
    38    21    25 1   
    39    22    23 ar  
    40    22    37 1   
    41    23    24 ar  
    42    23    38 1   
    43    24    39 1   
    44    25    42 1   
    45    25    43 1   
    46    40    44 1   
    47    41    44 1   
@<TRIPOS>SUBSTRUCTURE
     1 69M         1 TEMP              0 ****  ****    0 ROOT
