@<TRIPOS>MOLECULE
69M
   44    47     1     0     0
SMALL
No Charge or Current Charge


@<TRIPOS>ATOM
      1 C2          -3.2480     2.7080     0.1720 ca         1 69M      -0.184000
      2 C4          -3.3420     0.2580     0.1430 ca         1 69M      -0.163500
      3 C5          -4.7420     0.3480    -0.0440 ca         1 69M      -0.045500
      4 C6          -5.3770     1.5970    -0.1570 ca         1 69M      -0.184000
      5 C8          -1.3070    -1.3470     0.2010 cc         1 69M      -0.213000
      6 C9          -1.1750    -2.6640     0.5250 cd         1 69M       0.228000
      7 C12         -0.2100    -0.6090    -0.4490 ca         1 69M       0.010000
      8 C13         -0.4690     0.2090    -1.5670 ca         1 69M      -0.099000
      9 C14          0.5710     0.9110    -2.1960 ca         1 69M      -0.113000
     10 C15          1.8840     0.8020    -1.7150 ca         1 69M      -0.105000
     11 C1          -4.6270     2.7770    -0.0570 ca         1 69M       0.143100
     12 C3          -2.6100     1.4610     0.2840 ca         1 69M      -0.045500
     13 O1          -5.2350     3.9910    -0.1610 oh         1 69M      -0.534100
     14 C7          -2.6980    -1.0620     0.3050 cc         1 69M       0.358500
     15 N10         -2.4490    -3.1020     0.8680 na         1 69M      -0.039200
     16 N11         -3.4060    -2.1000     0.7290 nd         1 69M      -0.522800
     17 C16          2.1860    -0.0120    -0.5960 cp         1 69M      -0.037000
     18 C17          1.1170    -0.7130     0.0190 ca         1 69M      -0.108000
     19 C18          3.5870    -0.1230    -0.0740 cp         1 69M       0.007000
     20 C19          4.4740     0.9830    -0.1120 ca         1 69M      -0.168000
     21 C20          5.7850     0.8810     0.3760 ca         1 69M       0.289000
     22 C21          6.2390    -0.3300     0.9140 ca         1 69M      -0.176000
     23 C22          5.3830    -1.4420     0.9640 ca         1 69M      -0.072000
     24 C23          4.0710    -1.3370     0.4750 ca         1 69M      -0.146000
     25 N25          6.6210     1.9640     0.3310 nv         1 69M      -1.073000
     26 H1          -2.6700     3.6230     0.2770 ha         1 69M       0.120500
     27 H2          -5.3450    -0.5550    -0.1230 ha         1 69M       0.124500
     28 H3          -6.4510     1.6380    -0.3180 ha         1 69M       0.120500
     29 H4          -1.4770     0.2880    -1.9660 ha         1 69M       0.121000
     30 H5           0.3590     1.5340    -3.0610 ha         1 69M       0.112000
     31 H6           2.6770     1.3450    -2.2240 ha         1 69M       0.112000
     32 H7          -1.5480     1.4430     0.5120 ha         1 69M       0.124500
     33 H8          -6.1940     3.8450    -0.3130 ho         1 69M       0.464000
     34 H9          -2.6940    -4.0420     1.1670 hn         1 69M       0.371000
     35 H10          1.3200    -1.3090     0.9040 ha         1 69M       0.123000
     36 H11          4.1320     1.9320    -0.5120 ha         1 69M       0.114000
     37 H12          7.2540    -0.4140     1.2940 ha         1 69M       0.111000
     38 H13          5.7370    -2.3840     1.3790 ha         1 69M       0.109000
     39 H14          3.4270    -2.2130     0.5110 ha         1 69M       0.112000
     40 H15          0.7290    -3.2290    -0.0350 hn         1 69M       0.454000
     41 H16         -0.2590    -4.5340     0.5380 hn         1 69M       0.454000
     42 H17          6.3430     2.7990    -0.1810 hn         1 69M       0.446500
     43 H18          7.6080     1.8540     0.5570 hn         1 69M       0.446500
     44 N24         -0.1160    -3.5290     0.4470 nv         1 69M      -1.050000
@<TRIPOS>BOND
     1     1    11 ar  
     2     1    12 ar  
     3     1    26 1   
     4     2     3 ar  
     5     2    12 ar  
     6     2    14 1   
     7     3     4 ar  
     8     3    27 1   
     9     4    11 ar  
    10     4    28 1   
    11     5     6 2   
    12     5     7 1   
    13     5    14 1   
    14     6    15 1   
    15     6    44 1   
    16     7     8 ar  
    17     7    18 ar  
    18     8     9 ar  
    19     8    29 1   
    20     9    10 ar  
    21     9    30 1   
    22    10    17 ar  
    23    10    31 1   
    24    11    13 1   
    25    12    32 1   
    26    13    33 1   
    27    14    16 2   
    28    15    16 1   
    29    15    34 1   
    30    17    18 ar  
    31    17    19 1   
    32    18    35 1   
    33    19    20 ar  
    34    19    24 ar  
    35    20    21 ar  
    36    20    36 1   
    37    21    22 ar  
    38    21    25 1   
    39    22    23 ar  
    40    22    37 1   
    41    23    24 ar  
    42    23    38 1   
    43    24    39 1   
    44    25    42 1   
    45    25    43 1   
    46    40    44 1   
    47    41    44 1   
@<TRIPOS>SUBSTRUCTURE
     1 69M         1 TEMP              0 ****  ****    0 ROOT
