@<TRIPOS>MOLECULE
69O
   15    14     1     0     0
SMALL
bcc


@<TRIPOS>ATOM
      1 C01          3.4920    -0.4700    -0.0130 c3         1 69O      -0.087100
      2 C02          2.2590     0.4230    -0.0110 c3         1 69O      -0.069400
      3 C03          0.9760    -0.3920     0.0080 c3         1 69O      -0.191400
      4 C04         -0.2910     0.4200     0.0010 c          1 69O       0.427100
      5 O05         -0.2790     1.6290    -0.0090 o          1 69O      -0.569100
      6 C06         -1.6430    -0.3550     0.0080 c          1 69O       0.857600
      7 O07         -1.5510    -1.5930     0.0780 o          1 69O      -0.805300
      8 O08         -2.6620     0.3450    -0.0570 o          1 69O      -0.805300
      9 H013         4.4110     0.1170    -0.0240 hc         1 69O       0.017367
     10 H012         3.5190    -1.1080     0.8730 hc         1 69O       0.017367
     11 H011         3.5060    -1.1230    -0.8880 hc         1 69O       0.017367
     12 H022         2.2900     1.0880     0.8560 hc         1 69O       0.035700
     13 H021         2.2750     1.0710    -0.8910 hc         1 69O       0.035700
     14 H031         0.9420    -1.0760    -0.8480 hc         1 69O       0.060200
     15 H032         0.9520    -1.0510     0.8820 hc         1 69O       0.060200
@<TRIPOS>BOND
     1     1     2 1   
     2     1     9 1   
     3     1    10 1   
     4     1    11 1   
     5     2     3 1   
     6     2    12 1   
     7     2    13 1   
     8     3     4 1   
     9     3    14 1   
    10     3    15 1   
    11     4     5 2   
    12     4     6 1   
    13     6     7 1   
    14     6     8 1   
@<TRIPOS>SUBSTRUCTURE
     1 69O         1 TEMP              0 ****  ****    0 ROOT
