@<TRIPOS>MOLECULE
69O
   15    14     1     0     0
SMALL
No Charge or Current Charge


@<TRIPOS>ATOM
      1 C01          3.4490    -0.4330    -0.2170 c3         1 69O      -0.087100
      2 C02          2.0900     0.2920    -0.1780 c3         1 69O      -0.069400
      3 C03          1.0100    -0.4910     0.6020 c3         1 69O      -0.191400
      4 C04         -0.3340     0.2680     0.6050 c          1 69O       0.427100
      5 O05         -0.5510     1.1450     1.4470 o          1 69O      -0.569100
      6 C06         -1.4170    -0.1280    -0.5350 c          1 69O       0.647000
      7 O07         -1.5510    -1.3120    -0.8350 o          1 69O      -0.700000
      8 O08         -2.0800     0.7710    -1.0490 o          1 69O      -0.700000
      9 H013         4.1820     0.1600    -0.7780 hc         1 69O       0.017367
     10 H012         3.8360    -0.5860     0.7970 hc         1 69O       0.017367
     11 H011         3.3530    -1.4110    -0.7040 hc         1 69O       0.017367
     12 H022         2.2270     1.2800     0.2800 hc         1 69O       0.035700
     13 H021         1.7470     0.4620    -1.2060 hc         1 69O       0.035700
     14 H031         0.8850    -1.4580     0.1020 hc         1 69O       0.060200
     15 H032         1.3500    -0.6350     1.6350 hc         1 69O       0.060200
@<TRIPOS>BOND
     1     1     2 1   
     2     1     9 1   
     3     1    10 1   
     4     1    11 1   
     5     2     3 1   
     6     2    12 1   
     7     2    13 1   
     8     3     4 1   
     9     3    14 1   
    10     3    15 1   
    11     4     5 2   
    12     4     6 1   
    13     6     7 1   
    14     6     8 1   
@<TRIPOS>SUBSTRUCTURE
     1 69O         1 TEMP              0 ****  ****    0 ROOT
