@<TRIPOS>MOLECULE
69P
   27    29     1     0     0
SMALL
No Charge or Current Charge


@<TRIPOS>ATOM
      1 N1          -0.4860    -1.8750     0.2920 nb         1 69P      -0.313000
      2 C2          -1.7820    -2.2540     0.3370 ca         1 69P       0.187900
      3 N3          -2.8620    -1.4580     0.1810 nb         1 69P      -0.224000
      4 C4          -2.6020    -0.1590    -0.0430 ca         1 69P       0.122500
      5 C5          -1.3230     0.3410    -0.1070 ca         1 69P      -0.090600
      6 C6          -0.2370    -0.5630     0.0770 ca         1 69P       0.462900
      7 N6           1.1300    -0.1760     0.0280 nh         1 69P      -0.761300
      8 N7          -1.3220     1.7110    -0.3770 nc         1 69P      -0.560100
      9 C8          -2.6320     1.9980    -0.4570 cd         1 69P       0.399700
     10 N9          -3.4560     0.8850    -0.2560 na         1 69P      -0.413300
     11 CBV          3.5230    -0.5090    -0.7910 c6         1 69P       0.132300
     12 CBW          2.9400     1.5890     0.3410 c6         1 69P       0.132300
     13 CBX          2.2040    -1.1800    -0.2820 c6         1 69P       0.176300
     14 CBY          1.6130     0.9610     0.8790 c6         1 69P       0.176300
     15 NDM          4.0100     0.5740     0.1130 n7         1 69P      -0.842400
     16 H2          -1.9770    -3.3110     0.5150 h5         1 69P       0.046100
     17 H8          -3.0540     2.9770    -0.6560 h5         1 69P       0.066800
     18 HN9         -4.4660     0.8680    -0.2730 hn         1 69P       0.370000
     19 HBV          4.3010    -1.2790    -0.9040 h1         1 69P       0.063700
     20 HBVA         3.3370    -0.0890    -1.7910 h1         1 69P       0.063700
     21 HBW          2.7220     2.1060    -0.6070 h1         1 69P       0.063700
     22 HBWA         3.2930     2.3520     1.0510 h1         1 69P       0.063700
     23 HBX          2.4320    -1.7740     0.6160 h1         1 69P       0.068950
     24 HBXA         1.8630    -1.8830    -1.0570 h1         1 69P       0.068950
     25 HBY          0.8630     1.7600     0.9470 h1         1 69P       0.068950
     26 HBYA         1.7850     0.6050     1.9060 h1         1 69P       0.068950
     27 HNDM         4.2480     0.1510     1.0200 hn         1 69P       0.403000
@<TRIPOS>BOND
     1     1     2 ar  
     2     1     6 ar  
     3     2     3 ar  
     4     2    16 1   
     5     3     4 ar  
     6     4     5 ar  
     7     4    10 1   
     8     5     6 ar  
     9     5     8 1   
    10     6     7 1   
    11     7    13 1   
    12     7    14 1   
    13     8     9 2   
    14     9    10 1   
    15     9    17 1   
    16    10    18 1   
    17    11    13 1   
    18    11    15 1   
    19    11    19 1   
    20    11    20 1   
    21    12    14 1   
    22    12    15 1   
    23    12    21 1   
    24    12    22 1   
    25    13    23 1   
    26    13    24 1   
    27    14    25 1   
    28    14    26 1   
    29    15    27 1   
@<TRIPOS>SUBSTRUCTURE
     1 69P         1 TEMP              0 ****  ****    0 ROOT
