@<TRIPOS>MOLECULE
69P
   27    29     1     0     0
SMALL
bcc


@<TRIPOS>ATOM
      1 N1          -0.4280    -1.8140    -0.2130 nb         1 69P      -0.839000
      2 C2          -1.6760    -2.1850    -0.4590 ca         1 69P       0.713900
      3 N3          -2.7640    -1.4380    -0.4760 nb         1 69P      -0.750000
      4 C4          -2.4770    -0.1660    -0.2080 ca         1 69P       0.450800
      5 C5          -1.2230     0.3780     0.0690 ca         1 69P      -0.221200
      6 C6          -0.1350    -0.5340     0.0630 ca         1 69P       0.791200
      7 N6           1.1480    -0.2180     0.3030 nh         1 69P      -0.761300
      8 N7          -1.3400     1.7330     0.2840 nc         1 69P      -0.560100
      9 C8          -2.6080     1.9870     0.1450 cd         1 69P       0.399700
     10 N9          -3.3410     0.8820    -0.1490 na         1 69P      -0.363000
     11 CBV          3.3910    -0.7190    -0.5260 c6         1 69P       0.132300
     12 CBW          2.7970     1.5490    -0.0670 c6         1 69P       0.132300
     13 CBX          2.2040    -1.2200     0.2900 c6         1 69P       0.176300
     14 CBY          1.5990     1.0880     0.7570 c6         1 69P       0.176300
     15 NDM          3.8810     0.5840    -0.1140 n7         1 69P      -0.787200
     16 H2          -1.8150    -3.2410    -0.6700 h5         1 69P       0.046100
     17 H8          -3.0640     2.9590     0.2460 h5         1 69P       0.066800
     18 HN9         -4.3370     0.8490    -0.3010 hn         1 69P       0.319700
     19 HBV          4.2010    -1.4470    -0.4580 h1         1 69P       0.063700
     20 HBVA         3.0970    -0.6620    -1.5790 h1         1 69P       0.063700
     21 HBW          2.4670     1.7520    -1.0910 h1         1 69P       0.063700
     22 HBWA         3.1670     2.4900     0.3430 h1         1 69P       0.063700
     23 HBX          2.5200    -1.4190     1.3220 h1         1 69P       0.068950
     24 HBXA         1.8210    -2.1490    -0.1220 h1         1 69P       0.068950
     25 HBY          0.7940     1.8130     0.6900 h1         1 69P       0.068950
     26 HBYA         1.8920     1.0110     1.8120 h1         1 69P       0.068950
     27 HNDM         4.2930     0.5050     0.8090 hn         1 69P       0.347800
@<TRIPOS>BOND
     1     1     2 ar  
     2     1     6 ar  
     3     2     3 ar  
     4     2    16 1   
     5     3     4 ar  
     6     4     5 ar  
     7     4    10 1   
     8     5     6 ar  
     9     5     8 1   
    10     6     7 1   
    11     7    13 1   
    12     7    14 1   
    13     8     9 2   
    14     9    10 1   
    15     9    17 1   
    16    10    18 1   
    17    11    13 1   
    18    11    15 1   
    19    11    19 1   
    20    11    20 1   
    21    12    14 1   
    22    12    15 1   
    23    12    21 1   
    24    12    22 1   
    25    13    23 1   
    26    13    24 1   
    27    14    25 1   
    28    14    26 1   
    29    15    27 1   
@<TRIPOS>SUBSTRUCTURE
     1 69P         1 TEMP              0 ****  ****    0 ROOT
