@<TRIPOS>MOLECULE
69Q
   50    52     1     0     0
SMALL
bcc


@<TRIPOS>ATOM
      1 C13          5.2290    -1.3140    -0.1730 ca         1 69Q       0.295600
      2 C15          5.3500    -2.6820     0.0110 ca         1 69Q      -0.178300
      3 C17         -3.9560    -1.9890     0.3910 ca         1 69Q      -0.264300
      4 C20         -4.8710     0.5350     0.1180 ca         1 69Q       0.425200
      5 C21         -3.5000     0.3340     0.0700 ca         1 69Q      -0.256300
      6 C22         -0.2800     4.8420     0.1730 c3         1 69Q       0.142800
      7 C24          0.0010     4.6220     1.6530 c3         1 69Q      -0.103600
      8 C26          6.4260    -0.4210    -0.3610 c3         1 69Q       0.634600
      9 C01          1.6780    -0.6120    -0.0930 cp         1 69Q       0.700000
     10 N02          1.7420     0.6880    -0.2780 nb         1 69Q      -0.782000
     11 N03          0.5700    -1.3210     0.0670 nb         1 69Q      -0.851000
     12 C04         -0.5540    -0.6010     0.0300 ca         1 69Q       0.965900
     13 C05          0.5530     1.3160    -0.2950 ca         1 69Q       0.960900
     14 N06         -0.6260     0.7020    -0.1450 nb         1 69Q      -0.864000
     15 C07          2.9590    -1.3690    -0.0550 cp         1 69Q       0.350300
     16 N08         -1.6890    -1.3380     0.1900 nu         1 69Q      -0.731300
     17 N09          0.5780     2.6330    -0.4760 nu         1 69Q      -0.840900
     18 N10          4.0750    -0.6730    -0.2070 nb         1 69Q      -0.587000
     19 C11          2.9630    -2.7490     0.1360 ca         1 69Q      -0.170300
     20 C12         -0.5660     3.5090    -0.5330 c3         1 69Q       0.200800
     21 C14          4.1780    -3.4080     0.1680 ca         1 69Q      -0.112000
     22 C16         -3.0140    -0.9650     0.2110 ca         1 69Q       0.218600
     23 C18         -5.2900    -1.6580     0.4200 ca         1 69Q       0.330600
     24 N19         -5.7650    -0.4250     0.2890 nb         1 69Q      -0.648000
     25 C23         -1.4810     5.7630    -0.0130 c3         1 69Q      -0.103600
     26 O25          0.8930     5.4270    -0.3750 oh         1 69Q      -0.596800
     27 F27          6.3880     0.1930    -1.5480 f          1 69Q      -0.226633
     28 F28          6.4690     0.5340     0.5720 f          1 69Q      -0.226633
     29 F29          7.5760    -1.0960    -0.2970 f          1 69Q      -0.226633
     30 C30         -6.3560    -2.7010     0.6180 c3         1 69Q       0.630600
     31 F31         -7.0320    -2.4890     1.7530 f          1 69Q      -0.227300
     32 F32         -7.2480    -2.6770    -0.3770 f          1 69Q      -0.227300
     33 F33         -5.8590    -3.9390     0.6760 f          1 69Q      -0.227300
     34 H1           6.3100    -3.1750     0.0360 ha         1 69Q       0.162000
     35 H2          -3.6250    -3.0130     0.5060 ha         1 69Q       0.158000
     36 H3          -5.2580     1.5420     0.0110 h4         1 69Q       0.027100
     37 H4          -2.8400     1.1720    -0.0730 ha         1 69Q       0.177000
     38 H5           0.2140     5.5700     2.1480 hc         1 69Q       0.048367
     39 H6          -0.8640     4.1750     2.1430 hc         1 69Q       0.048367
     40 H7           0.8530     3.9580     1.8080 hc         1 69Q       0.048367
     41 H8          -1.5090    -2.3250     0.3110 hn         1 69Q       0.463800
     42 H9           1.4850     3.0430    -0.6380 hn         1 69Q       0.473800
     43 H10          2.0350    -3.2880     0.2570 ha         1 69Q       0.169000
     44 H11         -1.4160     3.0180    -0.0630 h1         1 69Q       0.059700
     45 H12         -0.8440     3.7000    -1.5760 h1         1 69Q       0.059700
     46 H13          4.2180    -4.4790     0.3130 ha         1 69Q       0.149000
     47 H14         -1.6900     5.9380    -1.0710 hc         1 69Q       0.048367
     48 H15         -2.3790     5.3380     0.4340 hc         1 69Q       0.048367
     49 H16         -1.2970     6.7300     0.4590 hc         1 69Q       0.048367
     50 H17          0.7080     5.6970    -1.2820 ho         1 69Q       0.405000
@<TRIPOS>BOND
     1     1     2 ar  
     2     1     8 1   
     3     1    18 ar  
     4     2    21 ar  
     5     2    34 1   
     6     3    22 ar  
     7     3    23 ar  
     8     3    35 1   
     9     4     5 ar  
    10     4    24 ar  
    11     4    36 1   
    12     5    22 ar  
    13     5    37 1   
    14     6     7 1   
    15     6    20 1   
    16     6    25 1   
    17     6    26 1   
    18     7    38 1   
    19     7    39 1   
    20     7    40 1   
    21     8    27 1   
    22     8    28 1   
    23     8    29 1   
    24     9    10 ar  
    25     9    11 ar  
    26     9    15 1   
    27    10    13 ar  
    28    11    12 ar  
    29    12    14 ar  
    30    12    16 1   
    31    13    14 ar  
    32    13    17 1   
    33    15    18 ar  
    34    15    19 ar  
    35    16    22 1   
    36    16    41 1   
    37    17    20 1   
    38    17    42 1   
    39    19    21 ar  
    40    19    43 1   
    41    20    44 1   
    42    20    45 1   
    43    21    46 1   
    44    23    24 ar  
    45    23    30 1   
    46    25    47 1   
    47    25    48 1   
    48    25    49 1   
    49    26    50 1   
    50    30    31 1   
    51    30    32 1   
    52    30    33 1   
@<TRIPOS>SUBSTRUCTURE
     1 69Q         1 TEMP              0 ****  ****    0 ROOT
