@<TRIPOS>MOLECULE
69Q
   50    52     1     0     0
SMALL
No Charge or Current Charge


@<TRIPOS>ATOM
      1 C13          5.3370    -1.3290    -0.1780 ca         1 69Q       0.230300
      2 C15          5.4410    -2.7320    -0.2670 ca         1 69Q      -0.095000
      3 C17         -4.0650    -2.0690     0.4170 ca         1 69Q      -0.181000
      4 C20         -5.0300     0.2470    -0.6800 ca         1 69Q       0.359900
      5 C21         -3.6490     0.0350    -0.6630 ca         1 69Q      -0.173000
      6 C22         -0.2520     5.0600     0.3320 c3         1 69Q       0.166000
      7 C24          0.2000     5.3440     1.7850 c3         1 69Q      -0.103600
      8 C26          6.6130    -0.4660    -0.1440 c3         1 69Q       0.270700
      9 C01          1.6620    -0.6860    -0.0800 cp         1 69Q       0.174000
     10 N02          1.6790     0.6660     0.0010 nb         1 69Q      -0.256000
     11 N03          0.5110    -1.3990    -0.1040 nb         1 69Q      -0.325000
     12 C04         -0.6250    -0.6900    -0.0510 ca         1 69Q       0.439900
     13 C05          0.4810     1.2660     0.0610 ca         1 69Q       0.434900
     14 N06         -0.7060     0.6430     0.0440 nb         1 69Q      -0.338000
     15 C07          2.9810    -1.4350    -0.1480 cp         1 69Q       0.285000
     16 N08         -1.7850    -1.4420    -0.0450 nu         1 69Q      -0.924900
     17 N09          0.4900     2.6450     0.1500 nu         1 69Q      -0.896100
     18 N10          4.1290    -0.7050    -0.1200 nb         1 69Q      -0.587000
     19 C11          3.0330    -2.8530    -0.2370 ca         1 69Q      -0.087000
     20 C12         -0.6740     3.5590     0.1570 c3         1 69Q       0.200800
     21 C14          4.2730    -3.5090    -0.2970 ca         1 69Q      -0.094000
     22 C16         -3.1500    -1.1420    -0.0930 ca         1 69Q       0.357000
     23 C18         -5.4430    -1.7900     0.3690 ca         1 69Q       0.265300
     24 N19         -5.9170    -0.6390    -0.1750 nb         1 69Q      -0.648000
     25 C23         -1.4180     5.9990    -0.0540 c3         1 69Q      -0.103600
     26 O25          0.8590     5.3630    -0.5300 oh         1 69Q      -0.659000
     27 F27          7.3630    -0.6450    -1.2560 f          1 69Q      -0.105333
     28 F28          6.3630     0.8640    -0.0550 f          1 69Q      -0.105333
     29 F29          7.3990    -0.7830     0.9120 f          1 69Q      -0.105333
     30 C30         -6.4530    -2.8070     0.9410 c3         1 69Q       0.266700
     31 F31         -6.2350    -3.0360     2.2580 f          1 69Q      -0.106000
     32 F32         -7.7440    -2.4090     0.8260 f          1 69Q      -0.106000
     33 F33         -6.3600    -4.0050     0.3170 f          1 69Q      -0.106000
     34 H1           6.4180    -3.2080    -0.3110 ha         1 69Q       0.144000
     35 H2          -3.7170    -2.9970     0.8590 ha         1 69Q       0.140000
     36 H3          -5.4460     1.1540    -1.1180 h4         1 69Q       0.027100
     37 H4          -2.9940     0.7740    -1.1060 ha         1 69Q       0.159000
     38 H5           0.5020     6.3910     1.9030 hc         1 69Q       0.048367
     39 H6          -0.6140     5.1430     2.4910 hc         1 69Q       0.048367
     40 H7           1.0530     4.7130     2.0630 hc         1 69Q       0.048367
     41 H8          -1.5880    -2.4320     0.0930 hn         1 69Q       0.519000
     42 H9           1.4120     3.0820     0.1110 hn         1 69Q       0.529000
     43 H10          2.1190    -3.4380    -0.2590 ha         1 69Q       0.151000
     44 H11         -1.3640     3.2860     0.9680 h1         1 69Q       0.059700
     45 H12         -1.2270     3.4480    -0.7870 h1         1 69Q       0.059700
     46 H13          4.3270    -4.5940    -0.3650 ha         1 69Q       0.131000
     47 H14         -1.7290     5.8360    -1.0930 hc         1 69Q       0.048367
     48 H15         -2.2870     5.8230     0.5920 hc         1 69Q       0.048367
     49 H16         -1.1250     7.0510     0.0510 hc         1 69Q       0.048367
     50 H17          0.5910     5.1170    -1.4420 ho         1 69Q       0.444000
@<TRIPOS>BOND
     1     1     2 ar  
     2     1     8 1   
     3     1    18 ar  
     4     2    21 ar  
     5     2    34 1   
     6     3    22 ar  
     7     3    23 ar  
     8     3    35 1   
     9     4     5 ar  
    10     4    24 ar  
    11     4    36 1   
    12     5    22 ar  
    13     5    37 1   
    14     6     7 1   
    15     6    20 1   
    16     6    25 1   
    17     6    26 1   
    18     7    38 1   
    19     7    39 1   
    20     7    40 1   
    21     8    27 1   
    22     8    28 1   
    23     8    29 1   
    24     9    10 ar  
    25     9    11 ar  
    26     9    15 1   
    27    10    13 ar  
    28    11    12 ar  
    29    12    14 ar  
    30    12    16 1   
    31    13    14 ar  
    32    13    17 1   
    33    15    18 ar  
    34    15    19 ar  
    35    16    22 1   
    36    16    41 1   
    37    17    20 1   
    38    17    42 1   
    39    19    21 ar  
    40    19    43 1   
    41    20    44 1   
    42    20    45 1   
    43    21    46 1   
    44    23    24 ar  
    45    23    30 1   
    46    25    47 1   
    47    25    48 1   
    48    25    49 1   
    49    26    50 1   
    50    30    31 1   
    51    30    32 1   
    52    30    33 1   
@<TRIPOS>SUBSTRUCTURE
     1 69Q         1 TEMP              0 ****  ****    0 ROOT
