@<TRIPOS>MOLECULE
69R
   43    46     1     0     0
SMALL
No Charge or Current Charge


@<TRIPOS>ATOM
      1 C2          -1.3320    -1.5570     0.0730 cc         1 69R       0.360500
      2 C7          -2.7840    -1.3040    -0.0350 ca         1 69R      -0.159500
      3 C9          -4.7560     0.0920     0.3900 ca         1 69R      -0.184000
      4 C11         -5.0330    -2.1010    -0.6050 ca         1 69R      -0.184000
      5 C12         -3.6440    -2.3100    -0.5360 ca         1 69R      -0.047500
      6 C16         -1.0970     2.8110    -1.2490 ca         1 69R      -0.175500
      7 C19          0.5230     1.7370     0.7730 ca         1 69R      -0.072000
      8 C22          3.3850    -1.6240     0.4140 c3         1 69R       0.187500
      9 C26          5.7850     1.0890     0.0770 cc         1 69R       0.391400
     10 C3          -0.3130    -0.5810     0.2640 cc         1 69R      -0.226000
     11 C4           0.8490    -1.2830     0.3990 cd         1 69R       0.257000
     12 N5           0.4900    -2.6250     0.3560 na         1 69R      -0.041200
     13 N6          -0.8760    -2.8000     0.1480 nd         1 69R      -0.532800
     14 C8          -3.3670    -0.1140     0.4590 ca         1 69R      -0.047500
     15 C10         -5.5870    -0.8990    -0.1500 ca         1 69R       0.142100
     16 O13         -6.9340    -0.7070    -0.2180 oh         1 69R      -0.535100
     17 C14         -0.3010     0.8720     0.0180 ca         1 69R      -0.013000
     18 C15         -1.1090     1.4280    -0.9980 ca         1 69R      -0.072000
     19 C17         -0.2770     3.6560    -0.4900 ca         1 69R       0.131100
     20 C18          0.5330     3.1210     0.5220 ca         1 69R      -0.175500
     21 O20         -0.2730     4.9960    -0.7390 oh         1 69R      -0.535100
     22 N21          2.1410    -0.8260     0.4390 nu         1 69R      -0.919200
     23 C23          4.6140    -0.7200     0.3290 cd         1 69R       0.212300
     24 C24          5.9230    -1.1000     0.4820 cc         1 69R      -0.214000
     25 N25          6.6600     0.0570     0.3190 na         1 69R      -0.298500
     26 N27          4.5380     0.6450     0.0770 nd         1 69R      -0.645000
     27 H1          -5.1780     1.0180     0.7710 ha         1 69R       0.119000
     28 H2          -5.6780    -2.8770    -1.0100 ha         1 69R       0.119000
     29 H3          -3.2390    -3.2540    -0.8940 ha         1 69R       0.124500
     30 H4          -1.7220     3.2240    -2.0360 ha         1 69R       0.118000
     31 H5           1.1350     1.3450     1.5820 ha         1 69R       0.115000
     32 H6           3.4590    -2.2370     1.3220 h1         1 69R       0.043200
     33 H7           3.3850    -2.2990    -0.4530 h1         1 69R       0.043200
     34 H9           1.1290    -3.4090     0.4340 hn         1 69R       0.371000
     35 H10         -2.7550     0.6510     0.9290 ha         1 69R       0.124500
     36 H11         -7.1390     0.1810     0.1460 ho         1 69R       0.463000
     37 H12         -1.7350     0.7840    -1.6110 ha         1 69R       0.115000
     38 H13          1.1680     3.7690     1.1210 ha         1 69R       0.118000
     39 H14          0.3540     5.4250    -0.1190 ho         1 69R       0.461000
     40 H15          2.2640     0.1790     0.2930 hn         1 69R       0.486000
     41 H16          6.3630    -2.0700     0.6850 h4         1 69R       0.160000
     42 H17          7.6680     0.1530     0.3670 hn         1 69R       0.356000
     43 H8           6.1120     2.1100    -0.0870 h5         1 69R       0.060100
@<TRIPOS>BOND
     1     1     2 1   
     2     1    10 1   
     3     1    13 2   
     4     2     5 ar  
     5     2    14 ar  
     6     3    14 ar  
     7     3    15 ar  
     8     3    27 1   
     9     4     5 ar  
    10     4    15 ar  
    11     4    28 1   
    12     5    29 1   
    13     6    18 ar  
    14     6    19 ar  
    15     6    30 1   
    16     7    17 ar  
    17     7    20 ar  
    18     7    31 1   
    19     8    22 1   
    20     8    23 1   
    21     8    32 1   
    22     8    33 1   
    23     9    25 1   
    24     9    26 2   
    25     9    43 1   
    26    10    11 2   
    27    10    17 1   
    28    11    12 1   
    29    11    22 1   
    30    12    13 1   
    31    12    34 1   
    32    14    35 1   
    33    15    16 1   
    34    16    36 1   
    35    17    18 ar  
    36    18    37 1   
    37    19    20 ar  
    38    19    21 1   
    39    20    38 1   
    40    21    39 1   
    41    22    40 1   
    42    23    24 2   
    43    23    26 1   
    44    24    25 1   
    45    24    41 1   
    46    25    42 1   
@<TRIPOS>SUBSTRUCTURE
     1 69R         1 TEMP              0 ****  ****    0 ROOT
