@<TRIPOS>MOLECULE
69R
   43    46     1     0     0
SMALL
bcc


@<TRIPOS>ATOM
      1 C2          -1.2260    -1.4510    -0.0390 cc         1 69R       0.425800
      2 C7          -2.6820    -1.2740    -0.0480 ca         1 69R      -0.159500
      3 C9          -4.6730    -0.0440     0.5850 ca         1 69R      -0.202000
      4 C11         -4.8820    -2.0800    -0.6760 ca         1 69R      -0.202000
      5 C12         -3.5060    -2.2130    -0.6720 ca         1 69R      -0.065500
      6 C16         -1.1270     3.0350    -1.1170 ca         1 69R      -0.193500
      7 C19          0.2700     1.7970     0.9240 ca         1 69R      -0.090000
      8 C22          3.3510    -1.6220     0.3250 c3         1 69R       0.187500
      9 C26          6.3240    -0.0480    -0.8340 cc         1 69R       0.391400
     10 C3          -0.2150    -0.4580    -0.0210 cc         1 69R      -0.291300
     11 C4           0.9710    -1.1840    -0.0250 cd         1 69R       0.169300
     12 N5           0.6190    -2.4820    -0.0370 na         1 69R      -0.041600
     13 N6          -0.7110    -2.6670    -0.0440 nd         1 69R      -0.532800
     14 C8          -3.2950    -0.1920     0.5830 ca         1 69R      -0.065500
     15 C10         -5.4780    -0.9880    -0.0470 ca         1 69R       0.142100
     16 O13         -6.8220    -0.8960    -0.0810 oh         1 69R      -0.496100
     17 C14         -0.3240     1.0050    -0.0580 ca         1 69R      -0.013000
     18 C15         -1.0180     1.6570    -1.0790 ca         1 69R      -0.090000
     19 C17         -0.5220     3.8100    -0.1290 ca         1 69R       0.131100
     20 C18          0.1840     3.1820     0.8920 ca         1 69R      -0.193500
     21 O20         -0.6520     5.1500    -0.2100 oh         1 69R      -0.496100
     22 N21          2.2640    -0.7520    -0.0980 nu         1 69R      -0.725600
     23 C23          4.6620    -0.9380     0.1580 cd         1 69R       0.277600
     24 C24          5.5010    -0.4940     1.1410 cc         1 69R      -0.246600
     25 N25          6.5560     0.0690     0.4880 na         1 69R      -0.298900
     26 N27          5.1890    -0.6510    -1.0720 nd         1 69R      -0.645000
     27 H1          -5.1190     0.8080     1.0850 ha         1 69R       0.137000
     28 H2          -5.5000    -2.8180    -1.1720 ha         1 69R       0.137000
     29 H3          -3.0600    -3.0630    -1.1730 ha         1 69R       0.142500
     30 H4          -1.6720     3.5180    -1.9190 ha         1 69R       0.136000
     31 H5           0.7960     1.3270     1.7470 ha         1 69R       0.133000
     32 H6           3.2380    -1.9440     1.3670 h1         1 69R       0.043200
     33 H7           3.3370    -2.5250    -0.2930 h1         1 69R       0.043200
     34 H9           1.2270    -3.2840    -0.0300 hn         1 69R       0.320700
     35 H10         -2.6950     0.5490     1.0940 ha         1 69R       0.142500
     36 H11         -7.1180    -0.0990     0.3720 ho         1 69R       0.424000
     37 H12         -1.4860     1.0720    -1.8620 ha         1 69R       0.133000
     38 H13          0.6570     3.7670     1.6730 ha         1 69R       0.136000
     39 H14         -0.2140     5.5760     0.5350 ho         1 69R       0.422000
     40 H15          2.3820     0.2140     0.1690 hn         1 69R       0.430800
     41 H16          5.4350    -0.5340     2.2160 h4         1 69R       0.178000
     42 H17          7.3640     0.4910     0.9150 hn         1 69R       0.305700
     43 H8           7.0170     0.3200    -1.5760 h5         1 69R       0.060100
@<TRIPOS>BOND
     1     1     2 1   
     2     1    10 1   
     3     1    13 2   
     4     2     5 ar  
     5     2    14 ar  
     6     3    14 ar  
     7     3    15 ar  
     8     3    27 1   
     9     4     5 ar  
    10     4    15 ar  
    11     4    28 1   
    12     5    29 1   
    13     6    18 ar  
    14     6    19 ar  
    15     6    30 1   
    16     7    17 ar  
    17     7    20 ar  
    18     7    31 1   
    19     8    22 1   
    20     8    23 1   
    21     8    32 1   
    22     8    33 1   
    23     9    25 1   
    24     9    26 2   
    25     9    43 1   
    26    10    11 2   
    27    10    17 1   
    28    11    12 1   
    29    11    22 1   
    30    12    13 1   
    31    12    34 1   
    32    14    35 1   
    33    15    16 1   
    34    16    36 1   
    35    17    18 ar  
    36    18    37 1   
    37    19    20 ar  
    38    19    21 1   
    39    20    38 1   
    40    21    39 1   
    41    22    40 1   
    42    23    24 2   
    43    23    26 1   
    44    24    25 1   
    45    24    41 1   
    46    25    42 1   
@<TRIPOS>SUBSTRUCTURE
     1 69R         1 TEMP              0 ****  ****    0 ROOT
