@<TRIPOS>MOLECULE
69S
   45    48     1     0     0
SMALL
No Charge or Current Charge


@<TRIPOS>ATOM
      1 C2          -3.5180     0.1250    -0.2520 ca         1 69S      -0.162500
      2 C3          -2.8020     1.3350    -0.4110 ca         1 69S      -0.046500
      3 C4          -3.4560     2.5770    -0.3280 ca         1 69S      -0.183500
      4 C5          -4.8390     2.6300    -0.1100 ca         1 69S       0.143100
      5 C6          -5.5710     1.4430     0.0060 ca         1 69S      -0.183500
      6 C7          -4.9210     0.1990    -0.0780 ca         1 69S      -0.046500
      7 C20          0.9530    -0.7830    -0.0580 ca         1 69S      -0.072000
      8 C21          3.3940    -0.1730     0.0270 cp         1 69S       0.000000
      9 C24          6.0250    -0.4160    -0.9940 ca         1 69S      -0.177000
     10 C25          5.2860    -1.5680    -0.6800 ca         1 69S      -0.068000
     11 C9          -2.8560    -1.1880    -0.3850 cc         1 69S       0.356500
     12 C10         -1.4620    -1.4520    -0.2610 cc         1 69S      -0.209000
     13 C11         -1.3080    -2.7730    -0.5600 cd         1 69S       0.225000
     14 C15         -0.3820    -0.6870     0.3890 ca         1 69S      -0.021000
     15 C16         -0.6650     0.1500     1.4870 ca         1 69S      -0.056000
     16 C17          0.3600     0.8710     2.1190 ca         1 69S      -0.148000
     17 C19          2.0010    -0.0530     0.5550 cp         1 69S      -0.134000
     18 C22          4.1570     0.9730    -0.3070 ca         1 69S      -0.190000
     19 C23          5.4600     0.8530    -0.8110 ca         1 69S       0.297000
     20 N1           6.1770     1.9730    -1.1260 nv         1 69S      -1.074000
     21 O8          -5.4790     3.8290    -0.0310 oh         1 69S      -0.534100
     22 N12         -2.5730    -3.2350    -0.9090 na         1 69S      -0.034200
     23 N13         -3.5450    -2.2430    -0.7970 nd         1 69S      -0.523800
     24 N14         -0.2380    -3.6210    -0.4590 nv         1 69S      -1.049000
     25 C18          1.6820     0.7730     1.6630 ca         1 69S       0.150100
     26 C26          3.9800    -1.4450    -0.1770 ca         1 69S      -0.147000
     27 H1          -1.7380     1.3260    -0.6320 ha         1 69S       0.124500
     28 H2          -2.8810     3.4920    -0.4470 ha         1 69S       0.120000
     29 H3          -6.6470     1.4820     0.1580 ha         1 69S       0.120000
     30 H4          -5.5140    -0.7090     0.0130 ha         1 69S       0.124500
     31 H5           1.1840    -1.3980    -0.9250 ha         1 69S       0.110000
     32 H6           7.0340    -0.5140    -1.3840 ha         1 69S       0.113000
     33 H7           5.7230    -2.5540    -0.8250 ha         1 69S       0.111000
     34 H8          -1.6790     0.2240     1.8720 ha         1 69S       0.126000
     35 H9           0.1290     1.5010     2.9740 ha         1 69S       0.129000
     36 H10          3.7190     1.9610    -0.1920 ha         1 69S       0.119000
     37 H11          5.8190     2.8950    -0.8810 hn         1 69S       0.451000
     38 H12          7.1630     1.8970    -1.3700 hn         1 69S       0.451000
     39 H13          3.5110     1.2260     1.9170 ho         1 69S       0.472000
     40 H14         -4.8150     4.5430    -0.1380 ho         1 69S       0.464000
     41 H15         -2.8020    -4.1820    -1.1930 hn         1 69S       0.371000
     42 H16          0.6040    -3.2970     0.0130 hn         1 69S       0.453500
     43 H17         -0.3630    -4.6300    -0.5360 hn         1 69S       0.453500
     44 H18          3.4160    -2.3420     0.0670 ha         1 69S       0.115000
     45 O27          2.6520     1.4610     2.3280 oh         1 69S      -0.539100
@<TRIPOS>BOND
     1     1     2 ar  
     2     1     6 ar  
     3     1    11 1   
     4     2     3 ar  
     5     2    27 1   
     6     3     4 ar  
     7     3    28 1   
     8     4     5 ar  
     9     4    21 1   
    10     5     6 ar  
    11     5    29 1   
    12     6    30 1   
    13     7    14 ar  
    14     7    17 ar  
    15     7    31 1   
    16     8    17 1   
    17     8    18 ar  
    18     8    26 ar  
    19     9    10 ar  
    20     9    19 ar  
    21     9    32 1   
    22    10    26 ar  
    23    10    33 1   
    24    11    12 1   
    25    11    23 2   
    26    12    13 2   
    27    12    14 1   
    28    13    22 1   
    29    13    24 1   
    30    14    15 ar  
    31    15    16 ar  
    32    15    34 1   
    33    16    25 ar  
    34    16    35 1   
    35    17    25 ar  
    36    18    19 ar  
    37    18    36 1   
    38    19    20 1   
    39    20    37 1   
    40    20    38 1   
    41    21    40 1   
    42    22    23 1   
    43    22    41 1   
    44    24    42 1   
    45    24    43 1   
    46    25    45 1   
    47    26    44 1   
    48    39    45 1   
@<TRIPOS>SUBSTRUCTURE
     1 69S         1 TEMP              0 ****  ****    0 ROOT
