@<TRIPOS>MOLECULE
69S
   45    48     1     0     0
SMALL
abcg2


@<TRIPOS>ATOM
      1 C2          -3.3580     0.1570    -0.3880 ca         1 69S      -0.162500
      2 C3          -2.5950     1.3080    -0.5750 ca         1 69S      -0.046500
      3 C4          -3.1680     2.5690    -0.5230 ca         1 69S      -0.183500
      4 C5          -4.5320     2.7070    -0.2840 ca         1 69S       0.143100
      5 C6          -5.3120     1.5660    -0.1050 ca         1 69S      -0.183500
      6 C7          -4.7270     0.3130    -0.1580 ca         1 69S      -0.046500
      7 C20          0.9000    -0.8180     0.0530 ca         1 69S      -0.072000
      8 C21          3.3000    -0.1550     0.0420 cp         1 69S       0.000000
      9 C24          5.8400    -0.2250    -1.1050 ca         1 69S      -0.177000
     10 C25          5.2080    -1.3960    -0.7250 ca         1 69S      -0.068000
     11 C9          -2.7630    -1.1820    -0.4540 cc         1 69S       0.356500
     12 C10         -1.4640    -1.5910    -0.0570 cc         1 69S      -0.209000
     13 C11         -1.4380    -2.9500    -0.3420 cd         1 69S       0.225000
     14 C15         -0.3880    -0.8250     0.5810 ca         1 69S      -0.021000
     15 C16         -0.6130    -0.0850     1.7430 ca         1 69S      -0.056000
     16 C17          0.4070     0.6240     2.3490 ca         1 69S      -0.148000
     17 C19          1.9480    -0.1150     0.6440 cp         1 69S      -0.134000
     18 C22          3.9320     1.0250    -0.3430 ca         1 69S      -0.190000
     19 C23          5.2070     1.0110    -0.9230 ca         1 69S       0.297000
     20 N1           5.7930     2.1770    -1.3590 nv         1 69S      -1.074000
     21 O8          -5.1440     3.9060    -0.2170 oh         1 69S      -0.534100
     22 N12         -2.6420    -3.2520    -0.8540 na         1 69S      -0.034200
     23 N13         -3.4600    -2.1920    -0.9390 nd         1 69S      -0.523800
     24 N14         -0.4820    -3.8990    -0.0780 nv         1 69S      -1.049000
     25 C18          1.6930     0.6110     1.8130 ca         1 69S       0.150100
     26 C26          3.9440    -1.3770    -0.1520 ca         1 69S      -0.147000
     27 H1          -1.5350     1.2280    -0.7760 ha         1 69S       0.124500
     28 H2          -2.5490     3.4460    -0.6770 ha         1 69S       0.120000
     29 H3          -6.3750     1.6640     0.0790 ha         1 69S       0.120000
     30 H4          -5.3460    -0.5620    -0.0080 ha         1 69S       0.124500
     31 H5           1.1020    -1.3510    -0.8700 ha         1 69S       0.110000
     32 H6           6.8270    -0.2620    -1.5520 ha         1 69S       0.113000
     33 H7           5.7140    -2.3420    -0.8740 ha         1 69S       0.111000
     34 H8          -1.6020    -0.0670     2.1830 ha         1 69S       0.126000
     35 H9           0.2160     1.1830     3.2560 ha         1 69S       0.129000
     36 H10          3.4180     1.9750    -0.2340 ha         1 69S       0.119000
     37 H11          5.4650     3.0250    -0.9260 hn         1 69S       0.451000
     38 H12          6.7960     2.1610    -1.4440 hn         1 69S       0.451000
     39 H13          3.5080     1.1750     2.0610 ho         1 69S       0.472000
     40 H14         -4.5060     4.6170    -0.3470 ho         1 69S       0.464000
     41 H15         -2.9600    -4.1550    -1.1670 hn         1 69S       0.371000
     42 H16          0.4330    -3.5140     0.0920 hn         1 69S       0.453500
     43 H17         -0.4300    -4.6580    -0.7410 hn         1 69S       0.453500
     44 H18          3.4670    -2.2990     0.1550 ha         1 69S       0.115000
     45 O27          2.6450     1.2980     2.4770 oh         1 69S      -0.539100
@<TRIPOS>BOND
     1     1     2 ar  
     2     1     6 ar  
     3     1    11 1   
     4     2     3 ar  
     5     2    27 1   
     6     3     4 ar  
     7     3    28 1   
     8     4     5 ar  
     9     4    21 1   
    10     5     6 ar  
    11     5    29 1   
    12     6    30 1   
    13     7    14 ar  
    14     7    17 ar  
    15     7    31 1   
    16     8    17 1   
    17     8    18 ar  
    18     8    26 ar  
    19     9    10 ar  
    20     9    19 ar  
    21     9    32 1   
    22    10    26 ar  
    23    10    33 1   
    24    11    12 1   
    25    11    23 2   
    26    12    13 2   
    27    12    14 1   
    28    13    22 1   
    29    13    24 1   
    30    14    15 ar  
    31    15    16 ar  
    32    15    34 1   
    33    16    25 ar  
    34    16    35 1   
    35    17    25 ar  
    36    18    19 ar  
    37    18    36 1   
    38    19    20 1   
    39    20    37 1   
    40    20    38 1   
    41    21    40 1   
    42    22    23 1   
    43    22    41 1   
    44    24    42 1   
    45    24    43 1   
    46    25    45 1   
    47    26    44 1   
    48    39    45 1   
@<TRIPOS>SUBSTRUCTURE
     1 69S         1 TEMP              0 ****  ****    0 ROOT
