@<TRIPOS>MOLECULE
69T
   33    35     1     0     0
SMALL
No Charge or Current Charge


@<TRIPOS>ATOM
      1 C1          -3.0930     0.5090     0.0860 ca         1 69T       0.243000
      2 C2          -3.4590    -0.7490     0.6080 ca         1 69T      -0.110500
      3 C3          -4.8160    -1.1180     0.6930 ca         1 69T      -0.150000
      4 C4          -5.8150    -0.2310     0.2650 ca         1 69T       0.124100
      5 C5          -5.4610     1.0300    -0.2410 ca         1 69T      -0.150000
      6 C6          -4.1040     1.3980    -0.3250 ca         1 69T      -0.110500
      7 C11          1.5900    -0.3030    -0.0790 cc         1 69T       0.342500
      8 C12          0.6760     0.7620     0.0690 cc         1 69T      -0.282000
      9 C13          3.0590    -0.1800    -0.0150 ca         1 69T      -0.155500
     10 C15          5.0850     1.1730     0.2720 ca         1 69T      -0.182500
     11 C18          3.8820    -1.3200    -0.1800 ca         1 69T      -0.050000
     12 N1          -1.7560     0.9150    -0.0080 nu         1 69T      -0.975000
     13 O7          -7.1250    -0.5970     0.3530 oh         1 69T      -0.530100
     14 C8          -0.5630     0.2400    -0.0440 cd         1 69T       0.247000
     15 N9          -0.3710    -1.1170    -0.2850 na         1 69T      -0.037200
     16 N10          0.9840    -1.4620    -0.2970 nd         1 69T      -0.528800
     17 C14          3.6830     1.0700     0.2130 ca         1 69T      -0.050000
     18 C16          5.8830     0.0330     0.1050 ca         1 69T       0.143100
     19 C17          5.2820    -1.2110    -0.1200 ca         1 69T      -0.182500
     20 H1          -2.7050    -1.4370     0.9750 ha         1 69T       0.123000
     21 H2          -5.0900    -2.0890     1.0990 ha         1 69T       0.125500
     22 H3          -6.2270     1.7290    -0.5710 ha         1 69T       0.125500
     23 H4          -3.8390     2.3750    -0.7200 ha         1 69T       0.123000
     24 H5           0.9220     1.8010     0.2420 ha         1 69T       0.144000
     25 H6           5.5410     2.1440     0.4480 ha         1 69T       0.119500
     26 H7           3.4420    -2.2990    -0.3570 ha         1 69T       0.121500
     27 H8           7.4790     1.0650     0.3250 ho         1 69T       0.464000
     28 H9          -1.6370     1.9270    -0.1000 hn         1 69T       0.500000
     29 H10         -7.6800     0.1380     0.0160 ho         1 69T       0.466000
     30 H11         -1.1040    -1.7970    -0.4540 hn         1 69T       0.375000
     31 H12          3.0950     1.9730     0.3460 ha         1 69T       0.121500
     32 H13          5.9000    -2.0960    -0.2500 ha         1 69T       0.119500
     33 O19          7.2400     0.1280     0.1620 oh         1 69T      -0.534100
@<TRIPOS>BOND
     1     1     2 ar  
     2     1     6 ar  
     3     1    12 1   
     4     2     3 ar  
     5     2    20 1   
     6     3     4 ar  
     7     3    21 1   
     8     4     5 ar  
     9     4    13 1   
    10     5     6 ar  
    11     5    22 1   
    12     6    23 1   
    13     7     8 1   
    14     7     9 1   
    15     7    16 2   
    16     8    14 2   
    17     8    24 1   
    18     9    11 ar  
    19     9    17 ar  
    20    10    17 ar  
    21    10    18 ar  
    22    10    25 1   
    23    11    19 ar  
    24    11    26 1   
    25    12    14 1   
    26    12    28 1   
    27    13    29 1   
    28    14    15 1   
    29    15    16 1   
    30    15    30 1   
    31    17    31 1   
    32    18    19 ar  
    33    18    33 1   
    34    19    32 1   
    35    27    33 1   
@<TRIPOS>SUBSTRUCTURE
     1 69T         1 TEMP              0 ****  ****    0 ROOT
