@<TRIPOS>MOLECULE
69T
   33    35     1     0     0
SMALL
bcc


@<TRIPOS>ATOM
      1 C1          -3.0550     0.6790     0.2660 ca         1 69T       0.104600
      2 C2          -3.3480    -0.4740     0.9960 ca         1 69T      -0.128500
      3 C3          -4.5930    -1.0730     0.9080 ca         1 69T      -0.168000
      4 C4          -5.5900    -0.5120     0.1130 ca         1 69T       0.124100
      5 C5          -5.3140     0.6530    -0.5960 ca         1 69T      -0.168000
      6 C6          -4.0550     1.2310    -0.5290 ca         1 69T      -0.128500
      7 C11          1.4970     0.0010    -0.0030 cc         1 69T       0.407800
      8 C12          0.6840     1.1070     0.3240 cc         1 69T      -0.365300
      9 C13          2.9610    -0.0660    -0.0150 ca         1 69T      -0.155500
     10 C15          5.1200     0.9590     0.3990 ca         1 69T      -0.200500
     11 C18          3.6300    -1.2150    -0.4430 ca         1 69T      -0.068000
     12 N1          -1.8000     1.2970     0.3600 nu         1 69T      -0.643000
     13 O7          -6.7890    -1.1300     0.0720 oh         1 69T      -0.491100
     14 C8          -0.6090     0.6420     0.1780 cd         1 69T       0.159300
     15 N9          -0.5040    -0.6440    -0.2040 na         1 69T      -0.037600
     16 N10          0.7670    -1.0560    -0.3110 nd         1 69T      -0.528800
     17 C14          3.7350     1.0140     0.4040 ca         1 69T      -0.068000
     18 C16          5.7690    -0.1950    -0.0290 ca         1 69T       0.143100
     19 C17          5.0100    -1.2860    -0.4520 ca         1 69T      -0.200500
     20 H1          -2.6070    -0.9070     1.6570 ha         1 69T       0.141000
     21 H2          -4.7980    -1.9710     1.4760 ha         1 69T       0.143500
     22 H3          -6.0740     1.1090    -1.2190 ha         1 69T       0.143500
     23 H4          -3.8530     2.1270    -1.1040 ha         1 69T       0.141000
     24 H5           0.9790     2.1000     0.6220 ha         1 69T       0.162000
     25 H6           5.6910     1.8170     0.7340 ha         1 69T       0.137500
     26 H7           3.0610    -2.0730    -0.7780 ha         1 69T       0.139500
     27 H8           7.5250     0.4990     0.2640 ho         1 69T       0.425000
     28 H9          -1.7720     2.2860     0.1730 hn         1 69T       0.444800
     29 H10         -7.3900    -0.6580    -0.5150 ho         1 69T       0.427000
     30 H11         -1.2520    -1.2830    -0.4230 hn         1 69T       0.324700
     31 H12          3.2600     1.9240     0.7500 ha         1 69T       0.139500
     32 H13          5.5050    -2.1870    -0.7910 ha         1 69T       0.137500
     33 O19          7.1110    -0.3110    -0.0540 oh         1 69T      -0.495100
@<TRIPOS>BOND
     1     1     2 ar  
     2     1     6 ar  
     3     1    12 1   
     4     2     3 ar  
     5     2    20 1   
     6     3     4 ar  
     7     3    21 1   
     8     4     5 ar  
     9     4    13 1   
    10     5     6 ar  
    11     5    22 1   
    12     6    23 1   
    13     7     8 1   
    14     7     9 1   
    15     7    16 2   
    16     8    14 2   
    17     8    24 1   
    18     9    11 ar  
    19     9    17 ar  
    20    10    17 ar  
    21    10    18 ar  
    22    10    25 1   
    23    11    19 ar  
    24    11    26 1   
    25    12    14 1   
    26    12    28 1   
    27    13    29 1   
    28    14    15 1   
    29    15    16 1   
    30    15    30 1   
    31    17    31 1   
    32    18    19 ar  
    33    18    33 1   
    34    19    32 1   
    35    27    33 1   
@<TRIPOS>SUBSTRUCTURE
     1 69T         1 TEMP              0 ****  ****    0 ROOT
