@<TRIPOS>MOLECULE
69U
   47    50     1     0     0
SMALL
abcg2


@<TRIPOS>ATOM
      1 C1           2.7280     1.7990     0.2930 c3         1 69U       0.250100
      2 C5           6.5990    -0.0540    -0.0440 ca         1 69U       0.152100
      3 C6           5.8870     0.3060    -1.1880 ca         1 69U      -0.179500
      4 C7           4.6440     0.9060    -1.0690 ca         1 69U      -0.050000
      5 C10          0.3860     1.2370    -0.1110 cc         1 69U       0.243000
      6 C16         -3.8210     0.0380    -0.7240 ca         1 69U      -0.047000
      7 C17         -5.1880    -0.1780    -0.7370 ca         1 69U      -0.184500
      8 C18         -6.0440     0.7200    -0.1020 ca         1 69U       0.142100
      9 C19         -5.5070     1.8330     0.5400 ca         1 69U      -0.184500
     10 C20         -4.1370     2.0350     0.5480 ca         1 69U      -0.047000
     11 C21         -0.7950    -1.0110    -0.0000 ca         1 69U      -0.027000
     12 C22         -1.5230    -1.6640     0.9950 ca         1 69U      -0.070000
     13 C23         -1.5560    -3.0460     1.0800 ca         1 69U      -0.176500
     14 C24         -0.8410    -3.8190     0.1680 ca         1 69U       0.133100
     15 C26         -0.0850    -1.8040    -0.9050 ca         1 69U      -0.070000
     16 C2           4.0840     1.1650     0.1780 ca         1 69U      -0.151300
     17 C3           4.8030     0.7950     1.3100 ca         1 69U      -0.050000
     18 C14         -0.7610     0.4520    -0.0850 cd         1 69U      -0.212000
     19 C4           6.0490     0.1950     1.2100 ca         1 69U      -0.179500
     20 N9           1.7020     0.8660    -0.1490 nu         1 69U      -0.925200
     21 N11         -0.0300     2.5160    -0.1100 na         1 69U      -0.040200
     22 N12         -1.3670     2.6340    -0.1030 nc         1 69U      -0.529800
     23 C13         -1.8200     1.3940    -0.0840 cd         1 69U       0.357500
     24 C15         -3.2660     1.1440    -0.0780 ca         1 69U      -0.161500
     25 C25         -0.0980    -3.1880    -0.8250 ca         1 69U      -0.176500
     26 O28         -0.8310    -5.1680     0.2050 oh         1 69U      -0.536100
     27 H1           2.5590     2.1370     1.3220 h1         1 69U       0.040700
     28 H2           2.6910     2.6860    -0.3460 h1         1 69U       0.040700
     29 H3           6.3040     0.1210    -2.1710 ha         1 69U       0.124500
     30 H4           4.1060     1.1800    -1.9690 ha         1 69U       0.118000
     31 H5          -3.1820    -0.6650    -1.2400 ha         1 69U       0.124500
     32 H6          -5.5970    -1.0420    -1.2460 ha         1 69U       0.120000
     33 H7          -6.1570     2.5420     1.0410 ha         1 69U       0.120000
     34 H8          -3.7390     2.9020     1.0590 ha         1 69U       0.124500
     35 H9          -2.0740    -1.0810     1.7230 ha         1 69U       0.120000
     36 H10         -2.1300    -3.5220     1.8680 ha         1 69U       0.119500
     37 H11          0.4790    -1.3330    -1.7010 ha         1 69U       0.120000
     38 H12          4.3880     0.9810     2.2930 ha         1 69U       0.118000
     39 H13          6.5960    -0.0810     2.1030 ha         1 69U       0.124500
     40 H14          8.0890    -0.7520    -1.0140 ho         1 69U       0.467000
     41 H15          1.8510    -0.0800     0.1730 hn         1 69U       0.485000
     42 H16          0.5370     3.3470    -0.1430 hn         1 69U       0.371000
     43 H17          0.4590    -3.7810    -1.5400 ha         1 69U       0.119500
     44 H18         -7.8550     1.1650     0.3080 ho         1 69U       0.463000
     45 H19         -1.3800    -5.4870     0.9300 ho         1 69U       0.463000
     46 O8           7.8120    -0.6380    -0.0990 oh         1 69U      -0.530100
     47 O27         -7.3670     0.4660    -0.1400 oh         1 69U      -0.534100
@<TRIPOS>BOND
     1     1    16 1   
     2     1    20 1   
     3     1    27 1   
     4     1    28 1   
     5     2     3 ar  
     6     2    19 ar  
     7     2    46 1   
     8     3     4 ar  
     9     3    29 1   
    10     4    16 ar  
    11     4    30 1   
    12     5    18 2   
    13     5    20 1   
    14     5    21 1   
    15     6     7 ar  
    16     6    24 ar  
    17     6    31 1   
    18     7     8 ar  
    19     7    32 1   
    20     8     9 ar  
    21     8    47 1   
    22     9    10 ar  
    23     9    33 1   
    24    10    24 ar  
    25    10    34 1   
    26    11    12 ar  
    27    11    15 ar  
    28    11    18 1   
    29    12    13 ar  
    30    12    35 1   
    31    13    14 ar  
    32    13    36 1   
    33    14    25 ar  
    34    14    26 1   
    35    15    25 ar  
    36    15    37 1   
    37    16    17 ar  
    38    17    19 ar  
    39    17    38 1   
    40    18    23 1   
    41    19    39 1   
    42    20    41 1   
    43    21    22 1   
    44    21    42 1   
    45    22    23 2   
    46    23    24 1   
    47    25    43 1   
    48    26    45 1   
    49    40    46 1   
    50    44    47 1   
@<TRIPOS>SUBSTRUCTURE
     1 69U         1 TEMP              0 ****  ****    0 ROOT
