@<TRIPOS>MOLECULE
69U
   47    50     1     0     0
SMALL
No Charge or Current Charge


@<TRIPOS>ATOM
      1 C1           2.8450     2.0030    -0.0430 c3         1 69U       0.250100
      2 C5           6.5390    -0.2700    -0.0180 ca         1 69U       0.152100
      3 C6           5.8740    -0.0260    -1.2300 ca         1 69U      -0.179500
      4 C7           4.6760     0.7110    -1.2380 ca         1 69U      -0.050000
      5 C10          0.3740     1.3960     0.0330 cc         1 69U       0.243000
      6 C16         -3.7450     0.1590    -0.8470 ca         1 69U      -0.047000
      7 C17         -5.1150    -0.1470    -0.9220 ca         1 69U      -0.184500
      8 C18         -6.0330     0.5310    -0.1080 ca         1 69U       0.142100
      9 C19         -5.5850     1.5240     0.7770 ca         1 69U      -0.184500
     10 C20         -4.2150     1.8320     0.8540 ca         1 69U      -0.047000
     11 C21         -0.7570    -0.8900     0.1300 ca         1 69U      -0.027000
     12 C22         -1.7780    -1.5890     0.8120 ca         1 69U      -0.070000
     13 C23         -1.8080    -2.9950     0.8220 ca         1 69U      -0.176500
     14 C24         -0.8150    -3.7220     0.1510 ca         1 69U       0.133100
     15 C26          0.2390    -1.6400    -0.5370 ca         1 69U      -0.070000
     16 C2           4.1400     1.2080    -0.0330 ca         1 69U      -0.151300
     17 C3           4.8120     0.9580     1.1800 ca         1 69U      -0.050000
     18 C14         -0.7310     0.5930     0.1360 cd         1 69U      -0.212000
     19 C4           6.0090     0.2210     1.1840 ca         1 69U      -0.179500
     20 N9           1.7140     1.0770     0.0430 nu         1 69U      -0.925200
     21 N11         -0.1190     2.6910     0.0390 na         1 69U      -0.040200
     22 N12         -1.4990     2.7610     0.0870 nc         1 69U      -0.529800
     23 C13         -1.8490     1.4850     0.1080 cd         1 69U       0.357500
     24 C15         -3.2800     1.1330     0.0610 ca         1 69U      -0.161500
     25 C25          0.2060    -3.0460    -0.5270 ca         1 69U      -0.176500
     26 O28         -0.8380    -5.0840     0.1550 oh         1 69U      -0.536100
     27 H1           2.8320     2.7000     0.8070 h1         1 69U       0.040700
     28 H2           2.7830     2.5950    -0.9670 h1         1 69U       0.040700
     29 H3           6.2760    -0.4040    -2.1670 ha         1 69U       0.124500
     30 H4           4.1620     0.8950    -2.1800 ha         1 69U       0.118000
     31 H5          -3.0450    -0.3620    -1.4980 ha         1 69U       0.124500
     32 H6          -5.4640    -0.9060    -1.6170 ha         1 69U       0.120000
     33 H7          -6.2900     2.0640     1.4040 ha         1 69U       0.120000
     34 H8          -3.8770     2.6080     1.5390 ha         1 69U       0.124500
     35 H9          -2.5400    -1.0460     1.3640 ha         1 69U       0.120000
     36 H10         -2.6020    -3.5090     1.3590 ha         1 69U       0.119500
     37 H11          1.0200    -1.1440    -1.1040 ha         1 69U       0.120000
     38 H12          4.4060     1.3330     2.1170 ha         1 69U       0.118000
     39 H13          6.5250     0.0300     2.1220 ha         1 69U       0.124500
     40 H14          7.9170    -1.2430    -0.9220 ho         1 69U       0.467000
     41 H15          1.9330     0.0960     0.2110 hn         1 69U       0.485000
     42 H16          0.4530     3.5290     0.0130 hn         1 69U       0.371000
     43 H17          0.9720    -3.6090    -1.0550 ha         1 69U       0.119500
     44 H18         -7.8450     0.8000     0.4440 ho         1 69U       0.463000
     45 H19         -1.6160    -5.3800     0.6730 ho         1 69U       0.463000
     46 O8           7.7000    -0.9830    -0.0010 oh         1 69U      -0.530100
     47 O27         -7.3580     0.2300    -0.1890 oh         1 69U      -0.534100
@<TRIPOS>BOND
     1     1    16 1   
     2     1    20 1   
     3     1    27 1   
     4     1    28 1   
     5     2     3 ar  
     6     2    19 ar  
     7     2    46 1   
     8     3     4 ar  
     9     3    29 1   
    10     4    16 ar  
    11     4    30 1   
    12     5    18 2   
    13     5    20 1   
    14     5    21 1   
    15     6     7 ar  
    16     6    24 ar  
    17     6    31 1   
    18     7     8 ar  
    19     7    32 1   
    20     8     9 ar  
    21     8    47 1   
    22     9    10 ar  
    23     9    33 1   
    24    10    24 ar  
    25    10    34 1   
    26    11    12 ar  
    27    11    15 ar  
    28    11    18 1   
    29    12    13 ar  
    30    12    35 1   
    31    13    14 ar  
    32    13    36 1   
    33    14    25 ar  
    34    14    26 1   
    35    15    25 ar  
    36    15    37 1   
    37    16    17 ar  
    38    17    19 ar  
    39    17    38 1   
    40    18    23 1   
    41    19    39 1   
    42    20    41 1   
    43    21    22 1   
    44    21    42 1   
    45    22    23 2   
    46    23    24 1   
    47    25    43 1   
    48    26    45 1   
    49    40    46 1   
    50    44    47 1   
@<TRIPOS>SUBSTRUCTURE
     1 69U         1 TEMP              0 ****  ****    0 ROOT
