@<TRIPOS>MOLECULE
69W
   33    35     1     0     0
SMALL
bcc


@<TRIPOS>ATOM
      1 N           -5.5950     0.5860    -1.0440 nv         1 69W      -0.826200
      2 C1          -4.5330    -0.0740    -0.4650 ca         1 69W       0.150600
      3 C2          -4.6560    -1.4010    -0.0350 ca         1 69W      -0.195000
      4 C3          -3.5600    -2.0670     0.4860 ca         1 69W      -0.090000
      5 C4          -2.3260    -1.4440     0.5980 ca         1 69W      -0.162000
      6 C5          -2.1850    -0.1190     0.1800 cp         1 69W       0.006000
      7 C6          -3.2860     0.5500    -0.3480 ca         1 69W      -0.187000
      8 C7          -0.8840     0.5730     0.3020 cp         1 69W      -0.031000
      9 C8           0.3030    -0.1070     0.0460 ca         1 69W      -0.117000
     10 C9           1.5510     0.5100     0.1650 ca         1 69W       0.024000
     11 C10          1.5860     1.8540     0.5480 ca         1 69W      -0.140000
     12 C11          0.4090     2.5470     0.7890 ca         1 69W      -0.127000
     13 C12         -0.8190     1.9180     0.6710 ca         1 69W      -0.126000
     14 C13          2.7700    -0.2480    -0.0940 cc         1 69W      -0.283300
     15 C14          3.9820     0.2050    -0.6080 cd         1 69W       0.141300
     16 N15          4.7930    -0.8660    -0.6530 na         1 69W      -0.046600
     17 N16          4.2120    -1.9940    -0.2100 nd         1 69W      -0.522800
     18 C17          2.9970    -1.6260     0.1190 cc         1 69W       0.347200
     19 N18          4.3880     1.4620    -0.9800 nv         1 69W      -0.796200
     20 H1          -6.5090     0.2290    -0.8170 hn         1 69W       0.391800
     21 H2          -5.5640     1.5920    -0.9990 hn         1 69W       0.391800
     22 H3          -5.6130    -1.9040    -0.1060 ha         1 69W       0.128000
     23 H4          -3.6770    -3.0900     0.8230 ha         1 69W       0.128000
     24 H5          -1.4890    -1.9730     1.0350 ha         1 69W       0.134000
     25 H6          -3.1780     1.5710    -0.6960 ha         1 69W       0.131000
     26 H7           0.2580    -1.1380    -0.2850 ha         1 69W       0.134000
     27 H8           2.5340     2.3580     0.6920 ha         1 69W       0.135000
     28 H9           0.4540     3.5850     1.0930 ha         1 69W       0.128000
     29 H10         -1.7270     2.4660     0.8910 ha         1 69W       0.130000
     30 H11          5.7450    -0.8930    -0.9780 hn         1 69W       0.317700
     31 H12          2.3010    -2.3480     0.5240 h4         1 69W       0.037100
     32 H13          3.6350     2.0500    -1.3010 hn         1 69W       0.396800
     33 H14          5.1530     1.4880    -1.6370 hn         1 69W       0.396800
@<TRIPOS>BOND
     1     1     2 1   
     2     1    20 1   
     3     1    21 1   
     4     2     3 ar  
     5     2     7 ar  
     6     3     4 ar  
     7     3    22 1   
     8     4     5 ar  
     9     4    23 1   
    10     5     6 ar  
    11     5    24 1   
    12     6     7 ar  
    13     6     8 1   
    14     7    25 1   
    15     8     9 ar  
    16     8    13 ar  
    17     9    10 ar  
    18     9    26 1   
    19    10    11 ar  
    20    10    14 1   
    21    11    12 ar  
    22    11    27 1   
    23    12    13 ar  
    24    12    28 1   
    25    13    29 1   
    26    14    15 2   
    27    14    18 1   
    28    15    16 1   
    29    15    19 1   
    30    16    17 1   
    31    16    30 1   
    32    17    18 2   
    33    18    31 1   
    34    19    32 1   
    35    19    33 1   
@<TRIPOS>SUBSTRUCTURE
     1 69W         1 TEMP              0 ****  ****    0 ROOT
