@<TRIPOS>MOLECULE
69W
   33    35     1     0     0
SMALL
No Charge or Current Charge


@<TRIPOS>ATOM
      1 N           -5.6770     0.5500    -0.9130 nv         1 69W      -1.075000
      2 C1          -4.5890    -0.1030    -0.4010 ca         1 69W       0.289000
      3 C2          -4.7140    -1.4250     0.0440 ca         1 69W      -0.177000
      4 C3          -3.5990    -2.0990     0.5680 ca         1 69W      -0.072000
      5 C4          -2.3580    -1.4450     0.6440 ca         1 69W      -0.144000
      6 C5          -2.2060    -0.1070     0.1990 cp         1 69W       0.006000
      7 C6          -3.3490     0.5480    -0.3240 ca         1 69W      -0.169000
      8 C7          -0.8820     0.5910     0.2810 cp         1 69W      -0.031000
      9 C8           0.3320    -0.1130     0.0720 ca         1 69W      -0.099000
     10 C9           1.5910     0.5250     0.1310 ca         1 69W       0.024000
     11 C10          1.6260     1.9020     0.4410 ca         1 69W      -0.122000
     12 C11          0.4390     2.6210     0.6530 ca         1 69W      -0.109000
     13 C12         -0.8020     1.9740     0.5680 ca         1 69W      -0.108000
     14 C13          2.8080    -0.2780    -0.0940 cc         1 69W      -0.218000
     15 C14          4.0220     0.2050    -0.4950 cd         1 69W       0.229000
     16 N15          4.8340    -0.9190    -0.6650 na         1 69W      -0.046200
     17 N16          4.1510    -2.1140    -0.4290 nd         1 69W      -0.522800
     18 C17          2.9450    -1.6810    -0.1110 cc         1 69W       0.281900
     19 N18          4.4750     1.4580    -0.8050 nv         1 69W      -1.045000
     20 H1          -6.6010     0.1280    -0.8420 hn         1 69W       0.447000
     21 H2          -5.6280     1.5480    -1.1070 hn         1 69W       0.447000
     22 H3          -5.6720    -1.9350    -0.0140 ha         1 69W       0.110000
     23 H4          -3.6960    -3.1250     0.9170 ha         1 69W       0.110000
     24 H5          -1.5090    -1.9770     1.0650 ha         1 69W       0.116000
     25 H6          -3.2650     1.5690    -0.6860 ha         1 69W       0.113000
     26 H7           0.2830    -1.1690    -0.1710 ha         1 69W       0.116000
     27 H8           2.5680     2.4260     0.5630 ha         1 69W       0.117000
     28 H9           0.4820     3.6800     0.8980 ha         1 69W       0.110000
     29 H10         -1.7080     2.5470     0.7490 ha         1 69W       0.112000
     30 H11          5.8090    -0.9070    -0.9510 hn         1 69W       0.368000
     31 H12          2.1820    -2.4150     0.1110 h4         1 69W       0.037100
     32 H13          3.8000     2.2090    -0.9250 hn         1 69W       0.452000
     33 H14          5.3770     1.5810    -1.2650 hn         1 69W       0.452000
@<TRIPOS>BOND
     1     1     2 1   
     2     1    20 1   
     3     1    21 1   
     4     2     3 ar  
     5     2     7 ar  
     6     3     4 ar  
     7     3    22 1   
     8     4     5 ar  
     9     4    23 1   
    10     5     6 ar  
    11     5    24 1   
    12     6     7 ar  
    13     6     8 1   
    14     7    25 1   
    15     8     9 ar  
    16     8    13 ar  
    17     9    10 ar  
    18     9    26 1   
    19    10    11 ar  
    20    10    14 1   
    21    11    12 ar  
    22    11    27 1   
    23    12    13 ar  
    24    12    28 1   
    25    13    29 1   
    26    14    15 2   
    27    14    18 1   
    28    15    16 1   
    29    15    19 1   
    30    16    17 1   
    31    16    30 1   
    32    17    18 2   
    33    18    31 1   
    34    19    32 1   
    35    19    33 1   
@<TRIPOS>SUBSTRUCTURE
     1 69W         1 TEMP              0 ****  ****    0 ROOT
