@<TRIPOS>MOLECULE
69Y
   43    45     1     0     0
SMALL
No Charge or Current Charge


@<TRIPOS>ATOM
      1 C1           3.6990     0.1090     0.4930 ce         1 69Y       0.360900
      2 C2           5.1170     0.2960     0.0440 ca         1 69Y      -0.123900
      3 C5           7.8000     0.6720    -0.7780 ca         1 69Y      -0.094000
      4 C6           6.1090    -0.6600     0.3620 ca         1 69Y      -0.082500
      5 C11         -2.6100    -0.9260    -0.6300 c          1 69Y       0.608100
      6 C12         -3.7640    -0.1150    -0.0030 c3         1 69Y      -0.157400
      7 C13         -5.1010    -0.1040    -0.8010 c3         1 69Y      -0.136400
      8 C14         -6.2320     0.7140    -0.1420 c3         1 69Y       0.294000
      9 C15         -0.2370    -1.8140    -0.4580 c6         1 69Y       0.098500
     10 C16          0.9240    -0.8510    -0.8060 c6         1 69Y      -0.098900
     11 O1          -2.7510    -1.4660    -1.7200 o          1 69Y      -0.604100
     12 F2          -7.3530     0.6710    -0.8970 f          1 69Y      -0.119333
     13 F1          -6.5380     0.2260     1.0820 f          1 69Y      -0.119333
     14 F           -5.8770     2.0110    -0.0000 f          1 69Y      -0.119333
     15 N1          -1.3950    -1.0590     0.0860 n          1 69Y      -0.407800
     16 C10         -1.0430    -0.2800     1.3040 c6         1 69Y       0.098500
     17 C9           0.0980     0.7190     0.9970 c6         1 69Y      -0.098900
     18 C            1.3570     0.0100     0.4200 c5         1 69Y       0.134000
     19 C8           2.5250     0.9800     0.0920 c5         1 69Y      -0.163700
     20 N            3.3240    -0.8360     1.2910 n2         1 69Y      -0.261700
     21 O            1.9240    -0.8600     1.4240 os         1 69Y      -0.282000
     22 C7           7.4410    -0.4730    -0.0500 ca         1 69Y      -0.115000
     23 C4           6.8250     1.6330    -1.0920 ca         1 69Y      -0.115000
     24 C3           5.4930     1.4490    -0.6820 ca         1 69Y      -0.082500
     25 H1           8.8300     0.8160    -1.0950 ha         1 69Y       0.116000
     26 H2           5.8550    -1.5550     0.9260 ha         1 69Y       0.121500
     27 H3          -3.9070    -0.4760     1.0220 hc         1 69Y       0.072200
     28 H4          -3.3950     0.9020     0.1710 hc         1 69Y       0.072200
     29 H5          -4.9200     0.2980    -1.8060 hc         1 69Y       0.094700
     30 H6          -5.4500    -1.1360    -0.9360 hc         1 69Y       0.094700
     31 H7          -0.5190    -2.3860    -1.3530 h1         1 69Y       0.066950
     32 H8           0.1020    -2.5430     0.2930 h1         1 69Y       0.066950
     33 H9           1.7770    -1.4290    -1.1860 hc         1 69Y       0.059950
     34 H10          0.6090    -0.1920    -1.6260 hc         1 69Y       0.059950
     35 H11         -1.9020     0.2670     1.7120 h1         1 69Y       0.066950
     36 H12         -0.7160    -0.9770     2.0890 h1         1 69Y       0.066950
     37 H13         -0.2600     1.4730     0.2820 hc         1 69Y       0.059950
     38 H14          0.3640     1.2630     1.9140 hc         1 69Y       0.059950
     39 H15          2.4940     1.8900     0.7020 hc         1 69Y       0.076700
     40 H16          2.5550     1.2760    -0.9620 hc         1 69Y       0.076700
     41 H17          8.1950    -1.2180     0.1970 ha         1 69Y       0.117000
     42 H18          7.1030     2.5230    -1.6510 ha         1 69Y       0.117000
     43 H19          4.7590     2.2120    -0.9300 ha         1 69Y       0.121500
@<TRIPOS>BOND
     1     1     2 1   
     2     1    19 1   
     3     1    20 2   
     4     2     4 ar  
     5     2    24 ar  
     6     3    22 ar  
     7     3    23 ar  
     8     3    25 1   
     9     4    22 ar  
    10     4    26 1   
    11     5     6 1   
    12     5    11 2   
    13     5    15 1   
    14     6     7 1   
    15     6    27 1   
    16     6    28 1   
    17     7     8 1   
    18     7    29 1   
    19     7    30 1   
    20     8    12 1   
    21     8    13 1   
    22     8    14 1   
    23     9    10 1   
    24     9    15 1   
    25     9    31 1   
    26     9    32 1   
    27    10    18 1   
    28    10    33 1   
    29    10    34 1   
    30    15    16 1   
    31    16    17 1   
    32    16    35 1   
    33    16    36 1   
    34    17    18 1   
    35    17    37 1   
    36    17    38 1   
    37    18    19 1   
    38    18    21 1   
    39    19    39 1   
    40    19    40 1   
    41    20    21 1   
    42    22    41 1   
    43    23    24 ar  
    44    23    42 1   
    45    24    43 1   
@<TRIPOS>SUBSTRUCTURE
     1 69Y         1 TEMP              0 ****  ****    0 ROOT
