@<TRIPOS>MOLECULE
69Y
   43    45     1     0     0
SMALL
abcg2


@<TRIPOS>ATOM
      1 C1           3.6210    -0.0150     0.2910 ce         1 69Y       0.360900
      2 C2           5.0250     0.3080     0.0410 ca         1 69Y      -0.123900
      3 C5           7.6960     0.9600    -0.4530 ca         1 69Y      -0.094000
      4 C6           6.0550    -0.4940     0.5410 ca         1 69Y      -0.082500
      5 C11         -2.6130    -0.9760    -0.5380 c          1 69Y       0.608100
      6 C12         -3.6120    -0.0460     0.1310 c3         1 69Y      -0.157400
      7 C13         -4.9170     0.0130    -0.6490 c3         1 69Y      -0.136400
      8 C14         -5.9190     0.9440    -0.0250 c3         1 69Y       0.294000
      9 C15         -0.3700    -1.9280    -0.5460 c6         1 69Y       0.098500
     10 C16          0.7740    -1.0220    -0.9830 c6         1 69Y      -0.098900
     11 O1          -2.8960    -1.5490    -1.5810 o          1 69Y      -0.604100
     12 F2          -7.0650     0.9760    -0.7230 f          1 69Y      -0.119333
     13 F1          -6.2450     0.5890     1.2290 f          1 69Y      -0.119333
     14 F           -5.4760     2.2100     0.0430 f          1 69Y      -0.119333
     15 N1          -1.4230    -1.1430     0.0770 n          1 69Y      -0.407800
     16 C10         -0.9700    -0.4100     1.2460 c6         1 69Y       0.098500
     17 C9           0.1610     0.5440     0.8740 c6         1 69Y      -0.098900
     18 C            1.3020    -0.1760     0.1720 c5         1 69Y       0.134000
     19 C8           2.4490     0.7360    -0.2590 c5         1 69Y      -0.163700
     20 N            3.2810    -0.9810     1.0500 n2         1 69Y      -0.261700
     21 O            1.9250    -1.0710     1.1330 os         1 69Y      -0.282000
     22 C7           7.3770    -0.1700     0.2950 ca         1 69Y      -0.115000
     23 C4           6.6800     1.7610    -0.9540 ca         1 69Y      -0.115000
     24 C3           5.3520     1.4360    -0.7110 ca         1 69Y      -0.082500
     25 H1           8.7310     1.2120    -0.6430 ha         1 69Y       0.116000
     26 H2           5.8180    -1.3760     1.1220 ha         1 69Y       0.121500
     27 H3          -3.7910    -0.3850     1.1540 hc         1 69Y       0.072200
     28 H4          -3.1740     0.9530     0.2110 hc         1 69Y       0.072200
     29 H5          -4.7400     0.3520    -1.6700 hc         1 69Y       0.094700
     30 H6          -5.3730    -0.9750    -0.7150 hc         1 69Y       0.094700
     31 H7          -0.7750    -2.4660    -1.3990 h1         1 69Y       0.066950
     32 H8          -0.0150    -2.6760     0.1690 h1         1 69Y       0.066950
     33 H9           1.5820    -1.6200    -1.4130 hc         1 69Y       0.059950
     34 H10          0.4210    -0.3540    -1.7740 hc         1 69Y       0.059950
     35 H11         -1.7840     0.1430     1.7060 h1         1 69Y       0.066950
     36 H12         -0.6280    -1.1280     1.9960 h1         1 69Y       0.066950
     37 H13         -0.2240     1.3210     0.2070 hc         1 69Y       0.059950
     38 H14          0.5310     1.0460     1.7710 hc         1 69Y       0.059950
     39 H15          2.3880     1.7380     0.1790 hc         1 69Y       0.076700
     40 H16          2.4980     0.8610    -1.3420 hc         1 69Y       0.076700
     41 H17          8.1650    -0.8010     0.6840 ha         1 69Y       0.117000
     42 H18          6.9170     2.6420    -1.5360 ha         1 69Y       0.117000
     43 H19          4.5710     2.0710    -1.1090 ha         1 69Y       0.121500
@<TRIPOS>BOND
     1     1     2 1   
     2     1    19 1   
     3     1    20 2   
     4     2     4 ar  
     5     2    24 ar  
     6     3    22 ar  
     7     3    23 ar  
     8     3    25 1   
     9     4    22 ar  
    10     4    26 1   
    11     5     6 1   
    12     5    11 2   
    13     5    15 1   
    14     6     7 1   
    15     6    27 1   
    16     6    28 1   
    17     7     8 1   
    18     7    29 1   
    19     7    30 1   
    20     8    12 1   
    21     8    13 1   
    22     8    14 1   
    23     9    10 1   
    24     9    15 1   
    25     9    31 1   
    26     9    32 1   
    27    10    18 1   
    28    10    33 1   
    29    10    34 1   
    30    15    16 1   
    31    16    17 1   
    32    16    35 1   
    33    16    36 1   
    34    17    18 1   
    35    17    37 1   
    36    17    38 1   
    37    18    19 1   
    38    18    21 1   
    39    19    39 1   
    40    19    40 1   
    41    20    21 1   
    42    22    41 1   
    43    23    24 ar  
    44    23    42 1   
    45    24    43 1   
@<TRIPOS>SUBSTRUCTURE
     1 69Y         1 TEMP              0 ****  ****    0 ROOT
