@<TRIPOS>MOLECULE
6A0
   29    28     1     0     0
SMALL
No Charge or Current Charge


@<TRIPOS>ATOM
      1 N          -38.8610    19.4510    -3.1560 n8         1 6A0      -1.005200
      2 CA         -39.2300    19.6440    -4.6080 c3         1 6A0       0.018500
      3 C          -38.5460    20.8720    -5.3400 c          1 6A0       0.684000
      4 O          -37.9010    20.6540    -6.3570 o          1 6A0      -0.735500
      5 C6         -40.7720    19.7040    -4.7890 c3         1 6A0      -0.049400
      6 C5         -41.5160    18.3960    -4.4230 c3         1 6A0      -0.072400
      7 C4         -43.0390    18.4750    -4.6740 c3         1 6A0      -0.082400
      8 C3         -43.7790    17.1670    -4.3110 c3         1 6A0      -0.066400
      9 C2         -45.3200    17.2290    -4.4720 c3         1 6A0      -0.150400
     10 C1         -45.7700    17.3620    -5.9350 c          1 6A0       0.572100
     11 O2         -45.7640    18.4220    -6.5470 o          1 6A0      -0.604100
     12 N1         -46.2350    16.1970    -6.5270 ns         1 6A0      -0.363400
     13 O1         -46.5440    16.1660    -7.9390 oh         1 6A0      -0.464100
     14 H1         -37.8400    19.3640    -3.0810 hn         1 6A0       0.382000
     15 H2         -39.0550    20.3290    -2.6580 hn         1 6A0       0.382000
     16 H4         -38.8820    18.7460    -5.1380 h1         1 6A0       0.037700
     17 H6         -40.9870    19.9390    -5.8390 hc         1 6A0       0.040700
     18 H7         -41.1780    20.5350    -4.1970 hc         1 6A0       0.040700
     19 H8         -41.3420    18.1580    -3.3670 hc         1 6A0       0.033200
     20 H9         -41.0980    17.5690    -5.0110 hc         1 6A0       0.033200
     21 H10        -43.2100    18.7130    -5.7310 hc         1 6A0       0.045200
     22 H11        -43.4580    19.3020    -4.0870 hc         1 6A0       0.045200
     23 H12        -43.3860    16.3440    -4.9220 hc         1 6A0       0.038700
     24 H13        -43.5530    16.9160    -3.2670 hc         1 6A0       0.038700
     25 H14        -45.6970    18.0880    -3.9040 hc         1 6A0       0.062200
     26 H15        -45.7280    16.3020    -4.0520 hc         1 6A0       0.062200
     27 H16        -46.1020    15.2970    -6.0660 hn         1 6A0       0.338500
     28 H17        -46.1790    17.0300    -8.2550 ho         1 6A0       0.475000
     29 O3         -38.5910    21.9710    -4.8030 o          1 6A0      -0.735500
@<TRIPOS>BOND
     1     1     2 1   
     2     1    14 1   
     3     1    15 1   
     4     2     3 1   
     5     2     5 1   
     6     2    16 1   
     7     3     4 1   
     8     3    29 1   
     9     5     6 1   
    10     5    17 1   
    11     5    18 1   
    12     6     7 1   
    13     6    19 1   
    14     6    20 1   
    15     7     8 1   
    16     7    21 1   
    17     7    22 1   
    18     8     9 1   
    19     8    23 1   
    20     8    24 1   
    21     9    10 1   
    22     9    25 1   
    23     9    26 1   
    24    10    11 2   
    25    10    12 1   
    26    12    13 1   
    27    12    27 1   
    28    13    28 1   
@<TRIPOS>SUBSTRUCTURE
     1 6A0         1 TEMP              0 ****  ****    0 ROOT
