@<TRIPOS>MOLECULE
6A0
   29    28     1     0     0
SMALL
abcg2


@<TRIPOS>ATOM
      1 N          -38.9790    19.5010    -3.1720 n8         1 6A0      -1.005200
      2 CA         -39.2790    19.5810    -4.6090 c3         1 6A0       0.018500
      3 C          -38.6180    20.7830    -5.3330 c          1 6A0       0.684000
      4 O          -38.4070    20.6460    -6.5670 o          1 6A0      -0.735500
      5 C6         -40.7970    19.6450    -4.8330 c3         1 6A0      -0.049400
      6 C5         -41.5440    18.3710    -4.4490 c3         1 6A0      -0.072400
      7 C4         -43.0520    18.4740    -4.6690 c3         1 6A0      -0.082400
      8 C3         -43.7890    17.1950    -4.2800 c3         1 6A0      -0.066400
      9 C2         -45.3180    17.2570    -4.4490 c3         1 6A0      -0.150400
     10 C1         -45.7360    17.3770    -5.8910 c          1 6A0       0.572100
     11 O2         -45.8380    18.4410    -6.5110 o          1 6A0      -0.604100
     12 N1         -46.0170    16.2150    -6.5140 ns         1 6A0      -0.363400
     13 O1         -46.2090    16.2580    -7.8980 oh         1 6A0      -0.464100
     14 H1         -37.9920    19.2880    -3.0560 hn         1 6A0       0.382000
     15 H2         -39.0860    20.4400    -2.7950 hn         1 6A0       0.382000
     16 H4         -38.9020    18.6710    -5.0810 h1         1 6A0       0.037700
     17 H6         -40.9820    19.8640    -5.8880 hc         1 6A0       0.040700
     18 H7         -41.1950    20.4930    -4.2620 hc         1 6A0       0.040700
     19 H8         -41.3450    18.1300    -3.4010 hc         1 6A0       0.033200
     20 H9         -41.1500    17.5360    -5.0390 hc         1 6A0       0.033200
     21 H10        -43.2490    18.7140    -5.7180 hc         1 6A0       0.045200
     22 H11        -43.4500    19.3100    -4.0820 hc         1 6A0       0.045200
     23 H12        -43.3990    16.3540    -4.8600 hc         1 6A0       0.038700
     24 H13        -43.5840    16.9690    -3.2300 hc         1 6A0       0.038700
     25 H14        -45.7190    18.1230    -3.9190 hc         1 6A0       0.062200
     26 H15        -45.7650    16.3600    -4.0160 hc         1 6A0       0.062200
     27 H16        -45.6700    15.3190    -6.2030 hn         1 6A0       0.338500
     28 H17        -46.1200    17.2170    -8.0820 ho         1 6A0       0.475000
     29 O3         -38.3740    21.8100    -4.6500 o          1 6A0      -0.735500
@<TRIPOS>BOND
     1     1     2 1   
     2     1    14 1   
     3     1    15 1   
     4     2     3 1   
     5     2     5 1   
     6     2    16 1   
     7     3     4 1   
     8     3    29 1   
     9     5     6 1   
    10     5    17 1   
    11     5    18 1   
    12     6     7 1   
    13     6    19 1   
    14     6    20 1   
    15     7     8 1   
    16     7    21 1   
    17     7    22 1   
    18     8     9 1   
    19     8    23 1   
    20     8    24 1   
    21     9    10 1   
    22     9    25 1   
    23     9    26 1   
    24    10    11 2   
    25    10    12 1   
    26    12    13 1   
    27    12    27 1   
    28    13    28 1   
@<TRIPOS>SUBSTRUCTURE
     1 6A0         1 TEMP              0 ****  ****    0 ROOT
