@<TRIPOS>MOLECULE
6A5
   47    50     1     0     0
SMALL
abcg2


@<TRIPOS>ATOM
      1 C1          -1.1960    -0.9460     0.5690 cc         1 6A5       0.035000
      2 C2          -1.4990    -2.2460     0.8390 cd         1 6A5      -0.158300
      3 C3          -0.4160    -3.1720     1.0160 cd         1 6A5       0.393300
      4 N4           0.8370    -2.8100     0.9460 nc         1 6A5      -0.628000
      5 N5           0.1180    -0.5900     0.5070 na         1 6A5      -0.068400
      6 C6           1.1200    -1.5300     0.6940 cc         1 6A5       0.388500
      7 N7           2.3050    -0.9780     0.5840 nd         1 6A5      -0.257600
      8 C8           2.0700     0.3360     0.3220 cd         1 6A5      -0.001600
      9 C9           0.7250     0.6100     0.2760 cc         1 6A5      -0.198100
     10 C10          3.0910     1.4050     0.1850 c          1 6A5       0.654300
     11 O11          2.7580     2.5500     0.4750 o          1 6A5      -0.613100
     12 N12          4.3360     1.0970    -0.2280 n          1 6A5      -0.393800
     13 C13         -0.6930    -4.6170     1.2850 c3         1 6A5      -0.150400
     14 C14         -2.1930     0.1150     0.3360 ca         1 6A5      -0.060000
     15 C15         -2.9390    -2.6890     0.8500 c3         1 6A5       0.207100
     16 N16         -3.4780    -2.6590    -0.5000 n8         1 6A5      -0.995200
     17 C17         -2.8430     0.7170     1.4060 ca         1 6A5      -0.068000
     18 C18         -3.7800     1.7180     1.2030 ca         1 6A5      -0.108000
     19 C19         -4.0590     2.1180    -0.0930 ca         1 6A5       0.141000
     20 C20         -3.4230     1.5440    -1.1830 ca         1 6A5      -0.102000
     21 C21         -2.4940     0.5440    -0.9530 ca         1 6A5       0.167000
     22 CL22        -1.6870    -0.1730    -2.2960 cl         1 6A5      -0.167000
     23 CL23        -5.2230     3.3640    -0.3680 cl         1 6A5      -0.181000
     24 C24          5.3720     2.1170    -0.2410 c6         1 6A5       0.060500
     25 C25          6.6440     1.5460     0.3620 c6         1 6A5       0.138600
     26 O26          7.0600     0.3700    -0.2940 os         1 6A5      -0.450000
     27 C27          6.0550    -0.6190    -0.2590 c6         1 6A5       0.138600
     28 C28          4.7640    -0.1280    -0.8870 c6         1 6A5       0.060500
     29 H17         -2.6130     0.4010     2.4150 ha         1 6A5       0.129000
     30 H18         -4.2800     2.1760     2.0450 ha         1 6A5       0.139000
     31 H20         -3.6470     1.8660    -2.1900 ha         1 6A5       0.150000
     32 H9           0.1810     1.5220     0.1030 h4         1 6A5       0.254000
     33 H24          5.5530     2.4470    -1.2700 h1         1 6A5       0.066450
     34 HN16        -3.0050    -3.3470    -1.0730 hn         1 6A5       0.400500
     35 H24A         5.0530     2.9830     0.3340 h1         1 6A5       0.066450
     36 HN1A        -4.4510    -2.9360    -0.4730 hn         1 6A5       0.400500
     37 H28          4.0080    -0.9000    -0.8110 h1         1 6A5       0.066450
     38 H28A         4.9280     0.0860    -1.9490 h1         1 6A5       0.066450
     39 H25          7.4510     2.2750     0.2720 h1         1 6A5       0.054700
     40 H25A         6.4790     1.3550     1.4320 h1         1 6A5       0.054700
     41 H27          6.4270    -1.4830    -0.8130 h1         1 6A5       0.054700
     42 H27A         5.8570    -0.9370     0.7740 h1         1 6A5       0.054700
     43 H13         -1.3530    -5.0450     0.5290 hc         1 6A5       0.058700
     44 H13A         0.2370    -5.1800     1.2920 hc         1 6A5       0.058700
     45 H13B        -1.1840    -4.7520     2.2510 hc         1 6A5       0.058700
     46 H15         -3.0170    -3.6630     1.3440 h1         1 6A5       0.041200
     47 H15A        -3.5240    -2.0010     1.4630 h1         1 6A5       0.041200
@<TRIPOS>BOND
     1     1     2 2   
     2     1     5 1   
     3     1    14 1   
     4     2     3 1   
     5     2    15 1   
     6     3     4 2   
     7     3    13 1   
     8     4     6 1   
     9     5     6 1   
    10     5     9 1   
    11     6     7 2   
    12     7     8 1   
    13     8     9 2   
    14     8    10 1   
    15     9    32 1   
    16    10    11 2   
    17    10    12 1   
    18    12    24 1   
    19    12    28 1   
    20    13    43 1   
    21    13    44 1   
    22    13    45 1   
    23    14    17 ar  
    24    14    21 ar  
    25    15    16 1   
    26    15    46 1   
    27    15    47 1   
    28    16    34 1   
    29    16    36 1   
    30    17    18 ar  
    31    17    29 1   
    32    18    19 ar  
    33    18    30 1   
    34    19    20 ar  
    35    19    23 1   
    36    20    21 ar  
    37    20    31 1   
    38    21    22 1   
    39    24    25 1   
    40    24    33 1   
    41    24    35 1   
    42    25    26 1   
    43    25    39 1   
    44    25    40 1   
    45    26    27 1   
    46    27    28 1   
    47    27    41 1   
    48    27    42 1   
    49    28    37 1   
    50    28    38 1   
@<TRIPOS>SUBSTRUCTURE
     1 6A5         1 TEMP              0 ****  ****    0 ROOT
