@<TRIPOS>MOLECULE
6A5
   47    50     1     0     0
SMALL
No Charge or Current Charge


@<TRIPOS>ATOM
      1 C1          -1.2580    -0.8910     0.4290 cc         1 6A5       0.035000
      2 C2          -1.6370    -2.2300     0.5930 cd         1 6A5      -0.158300
      3 C3          -0.5950    -3.2580     0.6600 cd         1 6A5       0.393300
      4 N4           0.7120    -3.0080     0.5800 nc         1 6A5      -0.628000
      5 N5           0.1080    -0.6870     0.3080 na         1 6A5      -0.068400
      6 C6           1.0090    -1.6890     0.4080 cc         1 6A5       0.388500
      7 N7           2.2130    -1.1600     0.3100 nd         1 6A5      -0.257600
      8 C8           2.0460     0.2270     0.1690 cd         1 6A5      -0.001600
      9 C9           0.6940     0.5390     0.1780 cc         1 6A5      -0.198100
     10 C10          3.0660     1.3360     0.0120 c          1 6A5       0.654300
     11 O11          2.7010     2.5010    -0.1300 o          1 6A5      -0.613100
     12 N12          4.4630     1.0370     0.0230 n          1 6A5      -0.393800
     13 C13         -0.9190    -4.7220     0.8390 c3         1 6A5      -0.150400
     14 C14         -2.2560     0.1750     0.3470 ca         1 6A5      -0.060000
     15 C15         -3.0960    -2.6260     0.7070 c3         1 6A5       0.207100
     16 N16         -3.6830    -2.8300    -0.6300 n8         1 6A5      -0.995200
     17 C17         -2.8410     0.6730     1.5280 ca         1 6A5      -0.068000
     18 C18         -3.7940     1.7050     1.4660 ca         1 6A5      -0.108000
     19 C19         -4.1610     2.2470     0.2240 ca         1 6A5       0.141000
     20 C20         -3.5770     1.7630    -0.9560 ca         1 6A5      -0.102000
     21 C21         -2.6260     0.7320    -0.8970 ca         1 6A5       0.167000
     22 Cl22        -1.9010     0.1540    -2.3990 cl         1 6A5      -0.167000
     23 Cl23        -5.3510     3.5390     0.1480 cl         1 6A5      -0.181000
     24 C24          5.4280     2.1190    -0.3760 c6         1 6A5       0.060500
     25 C25          6.9310     1.8190    -0.1620 c6         1 6A5       0.138600
     26 O26          7.2370     0.4730    -0.5560 os         1 6A5      -0.450000
     27 C27          6.5550    -0.4870     0.2660 c6         1 6A5       0.138600
     28 C28          5.0170    -0.3580     0.1180 c6         1 6A5       0.060500
     29 H17         -2.5560     0.2590     2.4930 ha         1 6A5       0.129000
     30 H18         -4.2450     2.0860     2.3790 ha         1 6A5       0.139000
     31 H20         -3.8590     2.1870    -1.9150 ha         1 6A5       0.150000
     32 H9           0.1620     1.4820     0.1000 h4         1 6A5       0.254000
     33 H24          5.2730     2.3360    -1.4420 h1         1 6A5       0.066450
     34 HN16        -3.2120    -3.6180    -1.0880 hn         1 6A5       0.400500
     35 H24A         5.1860     3.0420     0.1710 h1         1 6A5       0.066450
     36 HN1A        -4.6520    -3.1530    -0.5230 hn         1 6A5       0.400500
     37 H28          4.5820    -0.8610     0.9920 h1         1 6A5       0.066450
     38 H28A         4.7090    -0.9180    -0.7770 h1         1 6A5       0.066450
     39 H25          7.5400     2.5190    -0.7510 h1         1 6A5       0.054700
     40 H25A         7.1930     1.9540     0.8980 h1         1 6A5       0.054700
     41 H27          6.8740    -1.5000    -0.0170 h1         1 6A5       0.054700
     42 H27A         6.8420    -0.3260     1.3150 h1         1 6A5       0.054700
     43 H13         -1.6340    -5.0630     0.0830 hc         1 6A5       0.058700
     44 H13A        -0.0290    -5.3580     0.7520 hc         1 6A5       0.058700
     45 H13B        -1.3540    -4.9060     1.8280 hc         1 6A5       0.058700
     46 H15         -3.2080    -3.5490     1.2920 h1         1 6A5       0.041200
     47 H15A        -3.6670    -1.8470     1.2280 h1         1 6A5       0.041200
@<TRIPOS>BOND
     1     1     2 2   
     2     1     5 1   
     3     1    14 1   
     4     2     3 1   
     5     2    15 1   
     6     3     4 2   
     7     3    13 1   
     8     4     6 1   
     9     5     6 1   
    10     5     9 1   
    11     6     7 2   
    12     7     8 1   
    13     8     9 2   
    14     8    10 1   
    15     9    32 1   
    16    10    11 2   
    17    10    12 1   
    18    12    24 1   
    19    12    28 1   
    20    13    43 1   
    21    13    44 1   
    22    13    45 1   
    23    14    17 ar  
    24    14    21 ar  
    25    15    16 1   
    26    15    46 1   
    27    15    47 1   
    28    16    34 1   
    29    16    36 1   
    30    17    18 ar  
    31    17    29 1   
    32    18    19 ar  
    33    18    30 1   
    34    19    20 ar  
    35    19    23 1   
    36    20    21 ar  
    37    20    31 1   
    38    21    22 1   
    39    24    25 1   
    40    24    33 1   
    41    24    35 1   
    42    25    26 1   
    43    25    39 1   
    44    25    40 1   
    45    26    27 1   
    46    27    28 1   
    47    27    41 1   
    48    27    42 1   
    49    28    37 1   
    50    28    38 1   
@<TRIPOS>SUBSTRUCTURE
     1 6A5         1 TEMP              0 ****  ****    0 ROOT
