@<TRIPOS>MOLECULE
6A6
   44    47     1     0     0
SMALL
No Charge or Current Charge


@<TRIPOS>ATOM
      1 C2           4.2050    -2.2460    -0.8600 ca         1 6A6       0.173000
      2 C3           3.4950    -1.5320    -1.8360 ca         1 6A6      -0.153000
      3 C4           2.8870    -0.3090    -1.5040 ca         1 6A6      -0.064500
      4 C5           2.9850     0.2100    -0.1960 ca         1 6A6      -0.084300
      5 C6           3.7020    -0.5210     0.7800 ca         1 6A6      -0.064500
      6 C7           4.3100    -1.7440     0.4450 ca         1 6A6      -0.153000
      7 C8           2.2980     1.5560     0.1110 c6         1 6A6       0.148000
      8 C11          2.1500     3.6990     1.4780 c6         1 6A6      -0.075400
      9 C12          0.6140     3.6650     1.2910 c6         1 6A6      -0.109400
     10 C17         -1.3550     0.2470    -0.0740 ca         1 6A6      -0.203600
     11 C18         -2.2980    -0.5000     0.6750 ca         1 6A6       0.029000
     12 C19         -3.5860    -0.6460     0.1440 ca         1 6A6      -0.276900
     13 C21         -3.0470     0.6100    -1.8340 ca         1 6A6      -0.156000
     14 F1           4.7890    -3.4210    -1.1780 f          1 6A6      -0.182000
     15 C10          2.7420     2.2690     1.4170 c6         1 6A6      -0.100400
     16 C13          0.2110     2.8780     0.0190 c6         1 6A6       0.088000
     17 N14          0.8090     1.5140     0.0220 n          1 6A6      -0.390800
     18 O16          0.5190    -0.4450     1.2090 o          1 6A6      -0.577100
     19 C20         -3.9490    -0.1150    -1.0490 ca         1 6A6       0.004800
     20 C22         -1.7360     0.7840    -1.3390 ca         1 6A6      -0.034000
     21 N23         -5.2740    -0.4390    -1.2850 na         1 6A6      -0.063400
     22 N24         -5.7860    -1.2040    -0.2140 nc         1 6A6      -0.584100
     23 C25         -4.7620    -1.3100     0.6230 cd         1 6A6       0.565800
     24 N26         -4.9340    -2.0100     1.7530 nv         1 6A6      -0.969200
     25 H1           3.4170    -1.9260    -2.8460 ha         1 6A6       0.129500
     26 H2           2.3360     0.2400    -2.2660 ha         1 6A6       0.116500
     27 H3           3.7890    -0.1570     1.8010 ha         1 6A6       0.116500
     28 H4           4.8590    -2.3050     1.1970 ha         1 6A6       0.129500
     29 H5           2.6290     2.2170    -0.7050 h1         1 6A6       0.054700
     30 H6           2.6030     4.3200     0.6930 hc         1 6A6       0.042700
     31 H7           2.4030     4.1710     2.4370 hc         1 6A6       0.042700
     32 H8           0.1490     3.1960     2.1690 hc         1 6A6       0.050200
     33 H9           0.2190     4.6880     1.2380 hc         1 6A6       0.050200
     34 H10         -2.0380    -0.9390     1.6370 ha         1 6A6       0.130000
     35 H11         -3.3410     1.0200    -2.7970 ha         1 6A6       0.123000
     36 H12          2.4090     1.6940     2.2920 hc         1 6A6       0.057200
     37 H13          3.8380     2.3250     1.4640 hc         1 6A6       0.057200
     38 H14         -0.8850     2.8310    -0.0270 h1         1 6A6       0.058200
     39 H15          0.5540     3.4190    -0.8750 h1         1 6A6       0.058200
     40 H16         -1.0140     1.3220    -1.9500 ha         1 6A6       0.121000
     41 H17         -5.8310    -0.1830    -2.1000 hn         1 6A6       0.379000
     42 H18         -5.7610    -2.5940     1.8000 hn         1 6A6       0.453500
     43 H19         -4.1090    -2.3420     2.2390 hn         1 6A6       0.453500
     44 C15          0.0490     0.4040     0.4620 c          1 6A6       0.610700
@<TRIPOS>BOND
     1     1     2 ar  
     2     1     6 ar  
     3     1    14 1   
     4     2     3 ar  
     5     2    25 1   
     6     3     4 ar  
     7     3    26 1   
     8     4     5 ar  
     9     4     7 1   
    10     5     6 ar  
    11     5    27 1   
    12     6    28 1   
    13     7    15 1   
    14     7    17 1   
    15     7    29 1   
    16     8     9 1   
    17     8    15 1   
    18     8    30 1   
    19     8    31 1   
    20     9    16 1   
    21     9    32 1   
    22     9    33 1   
    23    10    11 ar  
    24    10    20 ar  
    25    10    44 1   
    26    11    12 ar  
    27    11    34 1   
    28    12    19 ar  
    29    12    23 1   
    30    13    19 ar  
    31    13    20 ar  
    32    13    35 1   
    33    15    36 1   
    34    15    37 1   
    35    16    17 1   
    36    16    38 1   
    37    16    39 1   
    38    17    44 1   
    39    18    44 2   
    40    19    21 1   
    41    20    40 1   
    42    21    22 1   
    43    21    41 1   
    44    22    23 2   
    45    23    24 1   
    46    24    42 1   
    47    24    43 1   
@<TRIPOS>SUBSTRUCTURE
     1 6A6         1 TEMP              0 ****  ****    0 ROOT
