@<TRIPOS>MOLECULE
6A6
   44    47     1     0     0
SMALL
bcc


@<TRIPOS>ATOM
      1 C2           4.4030    -2.0380    -0.9990 ca         1 6A6       0.137900
      2 C3           3.6370    -1.3630    -1.9310 ca         1 6A6      -0.171000
      3 C4           2.9490    -0.2310    -1.5230 ca         1 6A6      -0.082500
      4 C5           3.0080     0.2220    -0.2070 ca         1 6A6      -0.084300
      5 C6           3.7910    -0.4830     0.6980 ca         1 6A6      -0.082500
      6 C7           4.4970    -1.6140     0.3110 ca         1 6A6      -0.171000
      7 C8           2.2690     1.4870     0.1580 c6         1 6A6       0.148000
      8 C11          1.8250     3.4090     1.6830 c6         1 6A6      -0.075400
      9 C12          0.3650     3.3750     1.2410 c6         1 6A6      -0.109400
     10 C17         -1.2860     0.2110    -0.1810 ca         1 6A6      -0.203600
     11 C18         -2.2230    -0.3170     0.6860 ca         1 6A6       0.011000
     12 C19         -3.5350    -0.4670     0.2400 ca         1 6A6      -0.276900
     13 C21         -2.9370     0.3980    -1.9720 ca         1 6A6      -0.174000
     14 F1           5.0780    -3.1360    -1.3810 f          1 6A6      -0.146900
     15 C10          2.4910     2.0390     1.5640 c6         1 6A6      -0.100400
     16 C13          0.2120     2.7290    -0.1320 c6         1 6A6       0.088000
     17 N14          0.8340     1.4050    -0.1330 n          1 6A6      -0.457800
     18 O16          0.6250    -0.5890     0.9360 o          1 6A6      -0.577100
     19 C20         -3.8850    -0.1150    -1.0760 ca         1 6A6       0.004800
     20 C22         -1.6560     0.5570    -1.5030 ca         1 6A6      -0.052000
     21 N23         -5.1960    -0.3800    -1.1990 na         1 6A6      -0.013100
     22 N24         -5.7280    -0.8870    -0.0620 nc         1 6A6      -0.584100
     23 C25         -4.7570    -0.9440     0.8140 cd         1 6A6       0.565800
     24 N26         -4.9460    -1.3470     2.1130 nv         1 6A6      -0.858800
     25 H1           3.5830    -1.7090    -2.9550 ha         1 6A6       0.147500
     26 H2           2.3500     0.3060    -2.2490 ha         1 6A6       0.134500
     27 H3           3.8560    -0.1650     1.7300 ha         1 6A6       0.134500
     28 H4           5.1070    -2.1580     1.0210 ha         1 6A6       0.147500
     29 H5           2.6380     2.2540    -0.5360 h1         1 6A6       0.054700
     30 H6           2.3720     4.1250     1.0610 hc         1 6A6       0.042700
     31 H7           1.8990     3.7720     2.7100 hc         1 6A6       0.042700
     32 H8          -0.2310     2.8100     1.9650 hc         1 6A6       0.050200
     33 H9          -0.0480     4.3860     1.2110 hc         1 6A6       0.050200
     34 H10         -1.9410    -0.6000     1.6930 ha         1 6A6       0.148000
     35 H11         -3.1970     0.6530    -2.9900 ha         1 6A6       0.141000
     36 H12          2.0830     1.3470     2.3050 hc         1 6A6       0.057200
     37 H13          3.5610     2.1350     1.7630 hc         1 6A6       0.057200
     38 H14         -0.8380     2.6570    -0.4020 h1         1 6A6       0.058200
     39 H15          0.6990     3.3370    -0.8990 h1         1 6A6       0.058200
     40 H16         -0.8990     0.9420    -2.1750 ha         1 6A6       0.139000
     41 H17         -5.7830    -0.2500    -2.0050 hn         1 6A6       0.328700
     42 H18         -5.7700    -1.9110     2.2550 hn         1 6A6       0.398300
     43 H19         -4.1400    -1.7720     2.5420 hn         1 6A6       0.398300
     44 C15          0.1300     0.3100     0.2750 c          1 6A6       0.677700
@<TRIPOS>BOND
     1     1     2 ar  
     2     1     6 ar  
     3     1    14 1   
     4     2     3 ar  
     5     2    25 1   
     6     3     4 ar  
     7     3    26 1   
     8     4     5 ar  
     9     4     7 1   
    10     5     6 ar  
    11     5    27 1   
    12     6    28 1   
    13     7    15 1   
    14     7    17 1   
    15     7    29 1   
    16     8     9 1   
    17     8    15 1   
    18     8    30 1   
    19     8    31 1   
    20     9    16 1   
    21     9    32 1   
    22     9    33 1   
    23    10    11 ar  
    24    10    20 ar  
    25    10    44 1   
    26    11    12 ar  
    27    11    34 1   
    28    12    19 ar  
    29    12    23 1   
    30    13    19 ar  
    31    13    20 ar  
    32    13    35 1   
    33    15    36 1   
    34    15    37 1   
    35    16    17 1   
    36    16    38 1   
    37    16    39 1   
    38    17    44 1   
    39    18    44 2   
    40    19    21 1   
    41    20    40 1   
    42    21    22 1   
    43    21    41 1   
    44    22    23 2   
    45    23    24 1   
    46    24    42 1   
    47    24    43 1   
@<TRIPOS>SUBSTRUCTURE
     1 6A6         1 TEMP              0 ****  ****    0 ROOT
