@<TRIPOS>MOLECULE
6A7
   41    44     1     0     0
SMALL
bcc


@<TRIPOS>ATOM
      1 C2          -4.6320    -1.1860    -0.3980 ca         1 6A7       0.033400
      2 C3          -4.6150    -0.7190     0.9060 ca         1 6A7      -0.122500
      3 C4          -3.6460     0.2040     1.2760 ca         1 6A7      -0.101500
      4 C5          -2.7080     0.6680     0.3640 ca         1 6A7      -0.079300
      5 C6          -2.7500     0.1840    -0.9400 ca         1 6A7      -0.101500
      6 C7          -3.7040    -0.7430    -1.3280 ca         1 6A7      -0.122500
      7 C8          -1.7020     1.7110     0.7740 c5         1 6A7       0.154000
      8 C11         -0.6540     3.7640     0.1100 c5         1 6A7      -0.098400
      9 C12          0.2060     2.6250    -0.4200 c5         1 6A7       0.104000
     10 N13         -0.3630     1.4500     0.2440 n          1 6A7      -0.482800
     11 C16          1.6550     0.1070     0.0800 ca         1 6A7      -0.315900
     12 C17          2.6730    -0.3600     0.8950 ca         1 6A7       0.039000
     13 C18          3.8880    -0.6500     0.2900 ca         1 6A7      -0.352200
     14 C19          3.9830    -0.4850    -1.1030 ca         1 6A7       0.455800
     15 C21          1.8810     0.2180    -1.3080 ca         1 6A7       0.470200
     16 N22          5.2380    -0.8390    -1.4340 na         1 6A7      -0.112800
     17 C24          5.1750    -1.1190     0.6880 cc         1 6A7       0.381900
     18 CL1         -5.8290    -2.3480    -0.8750 cl         1 6A7      -0.115400
     19 C10         -2.0230     3.1100     0.2330 c5         1 6A7      -0.089400
     20 C14          0.3160     0.3700     0.6790 c          1 6A7       0.691700
     21 O15         -0.1400    -0.3880     1.5250 o          1 6A7      -0.588100
     22 N20          3.0140    -0.0750    -1.9140 nb         1 6A7      -0.685000
     23 N23          5.9500    -1.2180    -0.3610 nd         1 6A7      -0.509100
     24 C25          5.6330    -1.4650     2.0580 c3         1 6A7      -0.106400
     25 H1          -5.3370    -1.0730     1.6280 ha         1 6A7       0.147000
     26 H2          -3.6260     0.5610     2.2990 ha         1 6A7       0.135000
     27 H3          -2.0280     0.5260    -1.6720 ha         1 6A7       0.135000
     28 H4          -3.7220    -1.1140    -2.3440 ha         1 6A7       0.147000
     29 H5          -1.6600     1.7460     1.8670 h1         1 6A7       0.066700
     30 H6          -0.2910     4.0880     1.0870 hc         1 6A7       0.057200
     31 H7          -0.6490     4.6250    -0.5570 hc         1 6A7       0.057200
     32 H8           0.1080     2.5490    -1.5060 h1         1 6A7       0.051200
     33 H9           1.2620     2.7410    -0.1800 h1         1 6A7       0.051200
     34 H10          2.5240    -0.4820     1.9610 ha         1 6A7       0.159000
     35 H11          1.0720     0.5400    -1.9560 h4         1 6A7       0.025100
     36 H12          5.6570    -0.8540    -2.3510 hn         1 6A7       0.338700
     37 H13         -2.4930     3.0350    -0.7510 hc         1 6A7       0.059200
     38 H14         -2.7090     3.6420     0.8900 hc         1 6A7       0.059200
     39 H15          5.0250    -2.2660     2.4810 hc         1 6A7       0.054700
     40 H16          6.6710    -1.7920     2.0500 hc         1 6A7       0.054700
     41 H17          5.5500    -0.6080     2.7280 hc         1 6A7       0.054700
@<TRIPOS>BOND
     1     1     2 ar  
     2     1     6 ar  
     3     1    18 1   
     4     2     3 ar  
     5     2    25 1   
     6     3     4 ar  
     7     3    26 1   
     8     4     5 ar  
     9     4     7 1   
    10     5     6 ar  
    11     5    27 1   
    12     6    28 1   
    13     7    10 1   
    14     7    19 1   
    15     7    29 1   
    16     8     9 1   
    17     8    19 1   
    18     8    30 1   
    19     8    31 1   
    20     9    10 1   
    21     9    32 1   
    22     9    33 1   
    23    10    20 1   
    24    11    12 ar  
    25    11    15 ar  
    26    11    20 1   
    27    12    13 ar  
    28    12    34 1   
    29    13    14 ar  
    30    13    17 1   
    31    14    16 1   
    32    14    22 ar  
    33    15    22 ar  
    34    15    35 1   
    35    16    23 1   
    36    16    36 1   
    37    17    23 2   
    38    17    24 1   
    39    19    37 1   
    40    19    38 1   
    41    20    21 2   
    42    24    39 1   
    43    24    40 1   
    44    24    41 1   
@<TRIPOS>SUBSTRUCTURE
     1 6A7         1 TEMP              0 ****  ****    0 ROOT
