@<TRIPOS>MOLECULE
6A7
   41    44     1     0     0
SMALL
No Charge or Current Charge


@<TRIPOS>ATOM
      1 C2          -4.4180    -1.3680    -0.3870 ca         1 6A7       0.125000
      2 C3          -4.4700    -0.8550     0.9180 ca         1 6A7      -0.104500
      3 C4          -3.6070     0.1880     1.2990 ca         1 6A7      -0.083500
      4 C5          -2.6860     0.7310     0.3800 ca         1 6A7      -0.079300
      5 C6          -2.6430     0.2040    -0.9320 ca         1 6A7      -0.083500
      6 C7          -3.5050    -0.8390    -1.3120 ca         1 6A7      -0.104500
      7 C8          -1.7540     1.8640     0.8290 c5         1 6A7       0.154000
      8 C11         -0.8040     3.9160     0.0940 c5         1 6A7      -0.098400
      9 C12          0.2100     2.8060    -0.2910 c5         1 6A7       0.104000
     10 N13         -0.3890     1.5950     0.3260 n          1 6A7      -0.415800
     11 C16          1.6740     0.1880     0.1760 ca         1 6A7      -0.250600
     12 C17          2.7370    -0.3780     0.9080 ca         1 6A7       0.057000
     13 C18          3.8770    -0.7180     0.1740 ca         1 6A7      -0.286900
     14 C19          3.9500    -0.5310    -1.1730 ca         1 6A7       0.390500
     15 C21          1.8160     0.3260    -1.2230 ca         1 6A7       0.404900
     16 N22          5.2000    -0.9800    -1.5330 na         1 6A7      -0.163100
     17 C24          5.1300    -1.2920     0.5830 cc         1 6A7       0.381900
     18 Cl1         -5.4960    -2.6730    -0.8630 cl         1 6A7      -0.207000
     19 C10         -2.1440     3.1440     0.0430 c5         1 6A7      -0.089400
     20 C14          0.4010     0.5610     0.8680 c          1 6A7       0.624700
     21 O15          0.0270    -0.0690     1.8480 o          1 6A7      -0.588100
     22 N20          2.9410    -0.0220    -1.8990 nb         1 6A7      -0.685000
     23 N23          5.9580    -1.4610    -0.4550 nd         1 6A7      -0.509100
     24 C25          5.4950    -1.6670     1.9890 c3         1 6A7      -0.106400
     25 H1          -5.1770    -1.2670     1.6340 ha         1 6A7       0.129000
     26 H2          -3.6550     0.5760     2.3140 ha         1 6A7       0.117000
     27 H3          -1.9400     0.6020    -1.6600 ha         1 6A7       0.117000
     28 H4          -3.4650    -1.2380    -2.3230 ha         1 6A7       0.129000
     29 H5          -1.7620     2.0190     1.9170 h1         1 6A7       0.066700
     30 H6          -0.6060     4.3020     1.1010 hc         1 6A7       0.057200
     31 H7          -0.7750     4.7680    -0.5960 hc         1 6A7       0.057200
     32 H8           0.2670     2.7010    -1.3820 h1         1 6A7       0.051200
     33 H9           1.2170     3.0210     0.0920 h1         1 6A7       0.051200
     34 H10          2.6800    -0.5320     1.9850 ha         1 6A7       0.141000
     35 H11          0.9990     0.6970    -1.8380 h4         1 6A7       0.025100
     36 H12          5.5600    -0.9740    -2.4830 hn         1 6A7       0.389000
     37 H13         -2.4370     2.9380    -0.9930 hc         1 6A7       0.059200
     38 H14         -2.9690     3.6890     0.5160 hc         1 6A7       0.059200
     39 H15          4.7990    -2.4170     2.3810 hc         1 6A7       0.054700
     40 H16          6.5080    -2.0840     2.0400 hc         1 6A7       0.054700
     41 H17          5.4570    -0.7890     2.6440 hc         1 6A7       0.054700
@<TRIPOS>BOND
     1     1     2 ar  
     2     1     6 ar  
     3     1    18 1   
     4     2     3 ar  
     5     2    25 1   
     6     3     4 ar  
     7     3    26 1   
     8     4     5 ar  
     9     4     7 1   
    10     5     6 ar  
    11     5    27 1   
    12     6    28 1   
    13     7    10 1   
    14     7    19 1   
    15     7    29 1   
    16     8     9 1   
    17     8    19 1   
    18     8    30 1   
    19     8    31 1   
    20     9    10 1   
    21     9    32 1   
    22     9    33 1   
    23    10    20 1   
    24    11    12 ar  
    25    11    15 ar  
    26    11    20 1   
    27    12    13 ar  
    28    12    34 1   
    29    13    14 ar  
    30    13    17 1   
    31    14    16 1   
    32    14    22 ar  
    33    15    22 ar  
    34    15    35 1   
    35    16    23 1   
    36    16    36 1   
    37    17    23 2   
    38    17    24 1   
    39    19    37 1   
    40    19    38 1   
    41    20    21 2   
    42    24    39 1   
    43    24    40 1   
    44    24    41 1   
@<TRIPOS>SUBSTRUCTURE
     1 6A7         1 TEMP              0 ****  ****    0 ROOT
