@<TRIPOS>MOLECULE
6A9
   55    55     1     0     0
SMALL
abcg2


@<TRIPOS>ATOM
      1 C10          4.6500    -0.2810     0.2840 c3         1 6A9      -0.074400
      2 C12          7.1840    -0.4120     0.4160 c3         1 6A9      -0.080400
      3 C14         10.8140    -0.0400     0.0480 c3         1 6A9       0.147900
      4 C15         -3.1640    -1.2450    -0.5350 c6         1 6A9       0.132800
      5 C3          -4.0360     0.9770    -0.5290 c6         1 6A9       0.195500
      6 C2          -5.2670     0.5030     0.2570 c6         1 6A9       0.178300
      7 O2          -6.3660     1.3030    -0.1170 oh         1 6A9      -0.729000
      8 C1          -5.5650    -0.9640    -0.0160 c6         1 6A9       0.138300
      9 O1          -6.6650    -1.3280     0.7890 oh         1 6A9      -0.670000
     10 N           -2.8980     0.1320    -0.1640 n3         1 6A9      -0.715600
     11 C           -4.3350    -1.8030     0.2590 c6         1 6A9       0.133300
     12 O           -4.6340    -3.1330    -0.1060 oh         1 6A9      -0.728000
     13 C5          -1.6120     0.5850    -0.6730 c3         1 6A9       0.179800
     14 C6          -0.4190    -0.0910    -0.0090 c3         1 6A9      -0.078400
     15 C7           0.9020     0.4840    -0.5060 c3         1 6A9      -0.075400
     16 C8           2.1150    -0.1670     0.1460 c3         1 6A9      -0.074400
     17 C9           3.4410     0.3770    -0.3680 c3         1 6A9      -0.074400
     18 C11          5.9780     0.2520    -0.2370 c3         1 6A9      -0.074400
     19 C13          8.4900     0.1370    -0.1220 c3         1 6A9       0.159600
     20 O4           9.5720    -0.5060     0.5070 os         1 6A9      -0.455000
     21 H1           4.6010    -0.1380     1.3690 hc         1 6A9       0.039200
     22 H2           4.6050    -1.3640     0.1210 hc         1 6A9       0.039200
     23 H3           7.1430    -0.2600     1.5000 hc         1 6A9       0.051700
     24 H4           7.1430    -1.4920     0.2470 hc         1 6A9       0.051700
     25 H5          10.9430    -0.2040    -1.0280 h1         1 6A9       0.027367
     26 H6          10.9480     1.0320     0.2390 h1         1 6A9       0.027367
     27 H7          11.5980    -0.5840     0.5750 h1         1 6A9       0.027367
     28 H8          -3.3700    -1.3490    -1.6160 h1         1 6A9       0.039200
     29 H9          -2.2860    -1.8590    -0.3250 h1         1 6A9       0.039200
     30 H10         -3.4170     3.6330     1.1950 ho         1 6A9       0.438000
     31 H13         -4.2650     0.8770    -1.6080 h1         1 6A9       0.034700
     32 H14         -5.0470     0.6180     1.3280 h1         1 6A9       0.071700
     33 H15         -7.1280     1.0170     0.3970 ho         1 6A9       0.524000
     34 H16         -5.8140    -1.0660    -1.0850 h1         1 6A9       0.047700
     35 H17         -6.9180    -2.2290     0.5690 ho         1 6A9       0.462000
     36 H19         -4.0910    -1.7340     1.3290 h1         1 6A9       0.060700
     37 H20         -3.9400    -3.7060     0.2350 ho         1 6A9       0.509000
     38 H21         -1.5410     0.4640    -1.7680 h1         1 6A9       0.032700
     39 H22         -1.5090     1.6510    -0.4790 h1         1 6A9       0.032700
     40 H23         -0.4980     0.0430     1.0750 hc         1 6A9       0.046700
     41 H24         -0.4160    -1.1690    -0.1890 hc         1 6A9       0.046700
     42 H25          0.9660     0.3590    -1.5930 hc         1 6A9       0.036700
     43 H26          0.9260     1.5640    -0.3240 hc         1 6A9       0.036700
     44 H27          2.0600    -0.0290     1.2310 hc         1 6A9       0.038700
     45 H28          2.0780    -1.2490    -0.0220 hc         1 6A9       0.038700
     46 H29          3.4820     1.4590    -0.2010 hc         1 6A9       0.037200
     47 H30          3.4940     0.2370    -1.4540 hc         1 6A9       0.037200
     48 H31          6.0250     0.1080    -1.3220 hc         1 6A9       0.037200
     49 H32          6.0240     1.3350    -0.0750 hc         1 6A9       0.037200
     50 H33          8.5360    -0.0110    -1.2120 h1         1 6A9       0.018200
     51 H34          8.5370     1.2230     0.0460 h1         1 6A9       0.018200
     52 C4          -3.7960     2.4610    -0.2970 c3         1 6A9       0.164600
     53 H11         -4.7190     2.9900    -0.5550 h1         1 6A9       0.028200
     54 O3          -3.4220     2.6840     1.0430 oh         1 6A9      -0.647000
     55 H12         -3.0360     2.8300    -0.9970 h1         1 6A9       0.028200
@<TRIPOS>BOND
     1     1    17 1   
     2     1    18 1   
     3     1    21 1   
     4     1    22 1   
     5     2    18 1   
     6     2    19 1   
     7     2    23 1   
     8     2    24 1   
     9     3    20 1   
    10     3    25 1   
    11     3    26 1   
    12     3    27 1   
    13     4    10 1   
    14     4    11 1   
    15     4    28 1   
    16     4    29 1   
    17     5     6 1   
    18     5    10 1   
    19     5    31 1   
    20     5    52 1   
    21     6     7 1   
    22     6     8 1   
    23     6    32 1   
    24     7    33 1   
    25     8     9 1   
    26     8    11 1   
    27     8    34 1   
    28     9    35 1   
    29    10    13 1   
    30    11    12 1   
    31    11    36 1   
    32    12    37 1   
    33    13    14 1   
    34    13    38 1   
    35    13    39 1   
    36    14    15 1   
    37    14    40 1   
    38    14    41 1   
    39    15    16 1   
    40    15    42 1   
    41    15    43 1   
    42    16    17 1   
    43    16    44 1   
    44    16    45 1   
    45    17    46 1   
    46    17    47 1   
    47    18    48 1   
    48    18    49 1   
    49    19    20 1   
    50    19    50 1   
    51    19    51 1   
    52    30    54 1   
    53    52    53 1   
    54    52    54 1   
    55    52    55 1   
@<TRIPOS>SUBSTRUCTURE
     1 6A9         1 TEMP              0 ****  ****    0 ROOT
