@<TRIPOS>MOLECULE
6A9
   55    55     1     0     0
SMALL
No Charge or Current Charge


@<TRIPOS>ATOM
      1 C10          4.7480    -0.3410     0.1780 c3         1 6A9      -0.074400
      2 C12          7.3210    -0.4380     0.2810 c3         1 6A9      -0.080400
      3 C14         11.0350    -0.0850     0.0710 c3         1 6A9       0.147900
      4 C15         -3.2170    -1.2940    -0.2450 c6         1 6A9       0.132800
      5 C3          -4.1140     1.0280    -0.4940 c6         1 6A9       0.195500
      6 C2          -5.4840     0.5580     0.1230 c6         1 6A9       0.178300
      7 O2          -6.6160     1.2810    -0.4070 oh         1 6A9      -0.729000
      8 C1          -5.7140    -0.9520    -0.1440 c6         1 6A9       0.138300
      9 O1          -6.9580    -1.3920     0.4340 oh         1 6A9      -0.670000
     10 N           -2.9510     0.1650    -0.0270 n3         1 6A9      -0.715600
     11 C           -4.5350    -1.7740     0.4280 c6         1 6A9       0.133300
     12 O           -4.7630    -3.1830     0.2050 oh         1 6A9      -0.728000
     13 C5          -1.6360     0.5970    -0.5880 c3         1 6A9       0.179800
     14 C6          -0.3980    -0.1440    -0.0280 c3         1 6A9      -0.078400
     15 C7           0.9360     0.4950    -0.4760 c3         1 6A9      -0.075400
     16 C8           2.1760    -0.2430     0.0750 c3         1 6A9      -0.074400
     17 C9           3.5080     0.3970    -0.3730 c3         1 6A9      -0.074400
     18 C11          6.0800     0.2990    -0.2700 c3         1 6A9      -0.074400
     19 C13          8.6480     0.2030    -0.1680 c3         1 6A9       0.159600
     20 O4           9.7210    -0.5640     0.4020 os         1 6A9      -0.455000
     21 H1           4.7040    -0.3510     1.2740 hc         1 6A9       0.039200
     22 H2           4.7210    -1.3860    -0.1530 hc         1 6A9       0.039200
     23 H3           7.2800    -0.4460     1.3770 hc         1 6A9       0.051700
     24 H4           7.2980    -1.4830    -0.0520 hc         1 6A9       0.051700
     25 H5          11.1940    -0.1030    -1.0150 h1         1 6A9       0.027367
     26 H6          11.1760     0.9440     0.4270 h1         1 6A9       0.027367
     27 H7          11.8000    -0.7170     0.5390 h1         1 6A9       0.027367
     28 H8          -3.2610    -1.5130    -1.3220 h1         1 6A9       0.039200
     29 H9          -2.4010    -1.8990     0.1740 h1         1 6A9       0.039200
     30 H10         -3.5720     3.8850     1.1900 ho         1 6A9       0.438000
     31 H13         -4.2030     0.9150    -1.5850 h1         1 6A9       0.034700
     32 H14         -5.4250     0.7030     1.2130 h1         1 6A9       0.071700
     33 H15         -7.3840     0.6870    -0.2200 ho         1 6A9       0.524000
     34 H16         -5.7380    -1.1100    -1.2340 h1         1 6A9       0.047700
     35 H17         -6.8530    -2.3690     0.5170 ho         1 6A9       0.462000
     36 H19         -4.4590    -1.5710     1.5070 h1         1 6A9       0.060700
     37 H20         -4.0250    -3.6700     0.6440 ho         1 6A9       0.509000
     38 H21         -1.6430     0.4910    -1.6820 h1         1 6A9       0.032700
     39 H22         -1.4750     1.6590    -0.3710 h1         1 6A9       0.032700
     40 H23         -0.4470    -0.1450     1.0680 hc         1 6A9       0.046700
     41 H24         -0.4080    -1.1890    -0.3570 hc         1 6A9       0.046700
     42 H25          0.9790     0.5050    -1.5720 hc         1 6A9       0.036700
     43 H26          0.9630     1.5410    -0.1450 hc         1 6A9       0.036700
     44 H27          2.1310    -0.2530     1.1710 hc         1 6A9       0.038700
     45 H28          2.1490    -1.2890    -0.2560 hc         1 6A9       0.038700
     46 H29          3.5340     1.4430    -0.0410 hc         1 6A9       0.037200
     47 H30          3.5520     0.4070    -1.4690 hc         1 6A9       0.037200
     48 H31          6.1250     0.3090    -1.3660 hc         1 6A9       0.037200
     49 H32          6.1070     1.3450     0.0610 hc         1 6A9       0.037200
     50 H33          8.7070     0.1970    -1.2650 h1         1 6A9       0.018200
     51 H34          8.6890     1.2450     0.1780 h1         1 6A9       0.018200
     52 C4          -3.9240     2.5740    -0.2340 c3         1 6A9       0.164600
     53 H11         -4.8100     3.1040    -0.6080 h1         1 6A9       0.028200
     54 O3          -3.7030     2.9130     1.1510 oh         1 6A9      -0.647000
     55 H12         -3.0860     2.9330    -0.8450 h1         1 6A9       0.028200
@<TRIPOS>BOND
     1     1    17 1   
     2     1    18 1   
     3     1    21 1   
     4     1    22 1   
     5     2    18 1   
     6     2    19 1   
     7     2    23 1   
     8     2    24 1   
     9     3    20 1   
    10     3    25 1   
    11     3    26 1   
    12     3    27 1   
    13     4    10 1   
    14     4    11 1   
    15     4    28 1   
    16     4    29 1   
    17     5     6 1   
    18     5    10 1   
    19     5    31 1   
    20     5    52 1   
    21     6     7 1   
    22     6     8 1   
    23     6    32 1   
    24     7    33 1   
    25     8     9 1   
    26     8    11 1   
    27     8    34 1   
    28     9    35 1   
    29    10    13 1   
    30    11    12 1   
    31    11    36 1   
    32    12    37 1   
    33    13    14 1   
    34    13    38 1   
    35    13    39 1   
    36    14    15 1   
    37    14    40 1   
    38    14    41 1   
    39    15    16 1   
    40    15    42 1   
    41    15    43 1   
    42    16    17 1   
    43    16    44 1   
    44    16    45 1   
    45    17    46 1   
    46    17    47 1   
    47    18    48 1   
    48    18    49 1   
    49    19    20 1   
    50    19    50 1   
    51    19    51 1   
    52    30    54 1   
    53    52    53 1   
    54    52    54 1   
    55    52    55 1   
@<TRIPOS>SUBSTRUCTURE
     1 6A9         1 TEMP              0 ****  ****    0 ROOT
