@<TRIPOS>MOLECULE
6AB
   16    16     1     0     0
SMALL
bcc


@<TRIPOS>ATOM
      1 C1          -0.2280    -0.0130    -1.7050 c          1 6AB       0.932200
      2 O1           0.8560     0.1890    -2.3080 o          1 6AB      -0.835800
      3 O2          -1.3330    -0.1690    -2.2550 o          1 6AB      -0.835800
      4 C7          -0.1970    -0.0490    -0.1870 ca         1 6AB      -0.205600
      5 C2          -1.4080    -0.0350     0.5050 ca         1 6AB      -0.068000
      6 C3          -1.4810    -0.0140     1.8880 ca         1 6AB      -0.222000
      7 C4          -0.2950    -0.0110     2.6160 ca         1 6AB      -0.110000
      8 C5           0.9230    -0.0370     1.9660 ca         1 6AB      -0.251000
      9 C6           1.0040    -0.0600     0.5620 ca         1 6AB       0.189600
     10 N6           2.2340    -0.1460    -0.0360 nv         1 6AB      -0.854200
     11 H2          -2.3200    -0.0320    -0.0780 ha         1 6AB       0.141000
     12 H3          -2.4400     0.0040     2.3900 ha         1 6AB       0.103000
     13 H4          -0.3190     0.0090     3.6990 ha         1 6AB       0.093000
     14 H5           1.8400    -0.0400     2.5440 ha         1 6AB       0.098000
     15 HN61         3.0150     0.2040     0.4920 hn         1 6AB       0.413300
     16 HN62         2.2140     0.0900    -1.0210 hn         1 6AB       0.413300
@<TRIPOS>BOND
     1     1     2 1   
     2     1     3 1   
     3     1     4 1   
     4     4     5 ar  
     5     4     9 ar  
     6     5     6 ar  
     7     5    11 1   
     8     6     7 ar  
     9     6    12 1   
    10     7     8 ar  
    11     7    13 1   
    12     8     9 ar  
    13     8    14 1   
    14     9    10 1   
    15    10    15 1   
    16    10    16 1   
@<TRIPOS>SUBSTRUCTURE
     1 6AB         1 TEMP              0 ****  ****    0 ROOT
