@<TRIPOS>MOLECULE
6AB
   16    16     1     0     0
SMALL
No Charge or Current Charge


@<TRIPOS>ATOM
      1 C1          -0.2030    -0.0340    -1.7070 c          1 6AB       0.721600
      2 O1           0.6760     0.5720    -2.3070 o          1 6AB      -0.730500
      3 O2          -1.1180    -0.6110    -2.2770 o          1 6AB      -0.730500
      4 C7          -0.2070    -0.0250    -0.1980 ca         1 6AB      -0.205600
      5 C2          -1.4420     0.0270     0.4890 ca         1 6AB      -0.050000
      6 C3          -1.4800     0.0340     1.8930 ca         1 6AB      -0.204000
      7 C4          -0.2900    -0.0150     2.6310 ca         1 6AB      -0.092000
      8 C5           0.9400    -0.0720     1.9580 ca         1 6AB      -0.233000
      9 C6           0.9860    -0.0790     0.5560 ca         1 6AB       0.328000
     10 N6           2.2110    -0.1430    -0.0420 nv         1 6AB      -1.103000
     11 H2          -2.3760     0.0680    -0.0690 ha         1 6AB       0.123000
     12 H3          -2.4370     0.0770     2.4090 ha         1 6AB       0.085000
     13 H4          -0.3200    -0.0110     3.7180 ha         1 6AB       0.075000
     14 H5           1.8590    -0.1140     2.5360 ha         1 6AB       0.080000
     15 HN61         3.0310     0.0940     0.5100 hn         1 6AB       0.468500
     16 HN62         2.2340     0.1210    -1.0300 hn         1 6AB       0.468500
@<TRIPOS>BOND
     1     1     2 1   
     2     1     3 1   
     3     1     4 1   
     4     4     5 ar  
     5     4     9 ar  
     6     5     6 ar  
     7     5    11 1   
     8     6     7 ar  
     9     6    12 1   
    10     7     8 ar  
    11     7    13 1   
    12     8     9 ar  
    13     8    14 1   
    14     9    10 1   
    15    10    15 1   
    16    10    16 1   
@<TRIPOS>SUBSTRUCTURE
     1 6AB         1 TEMP              0 ****  ****    0 ROOT
