@<TRIPOS>MOLECULE
6AE
   42    43     1     0     0
SMALL
No Charge or Current Charge


@<TRIPOS>ATOM
      1 C5          -4.3240     0.0820     0.0180 ca         1 6AE      -0.324500
      2 C6          -3.7160     1.1440     0.7160 ca         1 6AE       0.025500
      3 C7          -2.3150     1.2550     0.7340 ca         1 6AE      -0.188500
      4 C8          -1.5130     0.3130     0.0730 ca         1 6AE       0.385000
      5 C10         -3.5250    -0.8570    -0.6610 ca         1 6AE       0.025500
      6 C15          3.1290    -1.9260    -0.1330 ca         1 6AE      -0.327000
      7 C20          6.8760     0.6220    -0.4270 c3         1 6AE       0.162300
      8 C22          6.9160     0.7580    -1.9650 c3         1 6AE      -0.131100
      9 O21          6.6490     1.9300     0.1370 oh         1 6AE      -0.658000
     10 C19          5.7920    -0.4030     0.0640 c3         1 6AE       0.214500
     11 C23          5.9770    -0.7760     1.5520 c3         1 6AE      -0.112100
     12 N18          4.4330     0.1370    -0.1350 nu         1 6AE      -0.927100
     13 C14          3.2260    -0.5310    -0.0900 ca         1 6AE       0.426900
     14 N13          2.1450     0.2530    -0.0220 nb         1 6AE      -0.337000
     15 C16          1.8430    -2.4810    -0.0860 ca         1 6AE       0.167900
     16 N17          0.7490    -1.7010    -0.0110 nb         1 6AE      -0.260000
     17 C12          0.9600    -0.3720     0.0050 ca         1 6AE       0.420900
     18 N11         -0.1270     0.4780     0.1130 nu         1 6AE      -0.930900
     19 C9          -2.1260    -0.7360    -0.6340 ca         1 6AE      -0.188500
     20 S1          -6.1080    -0.0750    -0.0150 sy         1 6AE       1.134600
     21 O2          -6.4980    -1.4640    -0.2520 o          1 6AE      -0.550000
     22 O3          -6.7030     0.7540     1.0310 o          1 6AE      -0.550000
     23 N4          -6.4770     0.7150    -1.3970 n8         1 6AE      -1.001100
     24 H1          -4.3170     1.8820     1.2450 ha         1 6AE       0.135000
     25 H2          -1.8550     2.0750     1.2760 ha         1 6AE       0.136500
     26 H3          -3.9810    -1.6770    -1.2160 ha         1 6AE       0.135000
     27 H4           4.0050    -2.5620    -0.1990 ha         1 6AE       0.134000
     28 H5           7.8570     0.2410    -0.1080 h1         1 6AE       0.073700
     29 H6           7.7210     1.4350    -2.2750 hc         1 6AE       0.049367
     30 H7           7.0980    -0.2170    -2.4310 hc         1 6AE       0.049367
     31 H8           5.9680     1.1510    -2.3520 hc         1 6AE       0.049367
     32 H9           7.3840     2.5070    -0.1650 ho         1 6AE       0.445000
     33 H10          5.9170    -1.3180    -0.5330 h1         1 6AE       0.062700
     34 H11          5.8550     0.1020     2.1960 hc         1 6AE       0.049033
     35 H12          5.2470    -1.5330     1.8610 hc         1 6AE       0.049033
     36 H13          6.9790    -1.1890     1.7210 hc         1 6AE       0.049033
     37 H14          4.3630     1.1540    -0.0930 hn         1 6AE       0.499000
     38 H15          1.6840    -3.5580    -0.1090 h4         1 6AE       0.021100
     39 H16          0.1600     1.4270     0.3470 hn         1 6AE       0.510000
     40 H17         -1.5280    -1.4530    -1.1850 ha         1 6AE       0.136500
     41 H18         -5.6520     1.2920    -1.5400 hn         1 6AE       0.469000
     42 H19         -7.1790     1.3700    -1.0610 hn         1 6AE       0.469000
@<TRIPOS>BOND
     1     1     2 ar  
     2     1     5 ar  
     3     1    20 1   
     4     2     3 ar  
     5     2    24 1   
     6     3     4 ar  
     7     3    25 1   
     8     4    18 1   
     9     4    19 ar  
    10     5    19 ar  
    11     5    26 1   
    12     6    13 ar  
    13     6    15 ar  
    14     6    27 1   
    15     7     8 1   
    16     7     9 1   
    17     7    10 1   
    18     7    28 1   
    19     8    29 1   
    20     8    30 1   
    21     8    31 1   
    22     9    32 1   
    23    10    11 1   
    24    10    12 1   
    25    10    33 1   
    26    11    34 1   
    27    11    35 1   
    28    11    36 1   
    29    12    13 1   
    30    12    37 1   
    31    13    14 ar  
    32    14    17 ar  
    33    15    16 ar  
    34    15    38 1   
    35    16    17 ar  
    36    17    18 1   
    37    18    39 1   
    38    19    40 1   
    39    20    21 2   
    40    20    22 2   
    41    20    23 1   
    42    23    41 1   
    43    23    42 1   
@<TRIPOS>SUBSTRUCTURE
     1 6AE         1 TEMP              0 ****  ****    0 ROOT
