@<TRIPOS>MOLECULE
6AE
   42    43     1     0     0
SMALL
abcg2


@<TRIPOS>ATOM
      1 C5          -4.1850     0.2880     0.0860 ca         1 6AE      -0.324500
      2 C6          -3.5670     1.4440     0.5470 ca         1 6AE       0.025500
      3 C7          -2.1910     1.5000     0.6080 ca         1 6AE      -0.188500
      4 C8          -1.4000     0.4100     0.2140 ca         1 6AE       0.385000
      5 C10         -3.4180    -0.8020    -0.3050 ca         1 6AE       0.025500
      6 C15          3.1440    -1.7810    -0.4810 ca         1 6AE      -0.327000
      7 C20          6.7950     0.4690    -0.4200 c3         1 6AE       0.162300
      8 C22          6.4980     0.7670    -1.8800 c3         1 6AE      -0.131100
      9 O21          6.9110     1.6510     0.3490 oh         1 6AE      -0.658000
     10 C19          5.7700    -0.4960     0.1940 c3         1 6AE       0.214500
     11 C23          6.1890    -0.9870     1.5750 c3         1 6AE      -0.112100
     12 N18          4.4650     0.1300     0.2330 nu         1 6AE      -0.927100
     13 C14          3.2820    -0.4630     0.0080 ca         1 6AE       0.426900
     14 N13          2.1990     0.2740     0.2610 nb         1 6AE      -0.337000
     15 C16          1.8610    -2.2180    -0.6800 ca         1 6AE       0.167900
     16 N17          0.7710    -1.4840    -0.4390 nb         1 6AE      -0.260000
     17 C12          1.0100    -0.2680     0.0250 ca         1 6AE       0.420900
     18 N11         -0.0360     0.5720     0.3160 nu         1 6AE      -0.930900
     19 C9          -2.0390    -0.7510    -0.2460 ca         1 6AE      -0.188500
     20 S1          -5.9370     0.1810     0.0080 sy         1 6AE       1.134600
     21 O2          -6.3710    -1.1430     0.4340 o          1 6AE      -0.550000
     22 O3          -6.4960     1.3380     0.6970 o          1 6AE      -0.550000
     23 N4          -6.1950     0.2240    -1.6260 n8         1 6AE      -1.001100
     24 H1          -4.1460     2.3010     0.8610 ha         1 6AE       0.135000
     25 H2          -1.7160     2.4040     0.9700 ha         1 6AE       0.136500
     26 H3          -3.8880    -1.7080    -0.6640 ha         1 6AE       0.135000
     27 H4           3.9830    -2.4270    -0.6890 ha         1 6AE       0.134000
     28 H5           7.7660    -0.0330    -0.3590 h1         1 6AE       0.073700
     29 H6           7.2500     1.4370    -2.2990 hc         1 6AE       0.049367
     30 H7           6.5040    -0.1500    -2.4700 hc         1 6AE       0.049367
     31 H8           5.5180     1.2340    -2.0030 hc         1 6AE       0.049367
     32 H9           6.3110     2.3140    -0.0080 ho         1 6AE       0.445000
     33 H10          5.7210    -1.3520    -0.4810 h1         1 6AE       0.062700
     34 H11          6.2430    -0.1640     2.2880 hc         1 6AE       0.049033
     35 H12          5.4760    -1.7190     1.9570 hc         1 6AE       0.049033
     36 H13          7.1690    -1.4640     1.5330 hc         1 6AE       0.049033
     37 H14          4.4040     1.0240     0.6990 hn         1 6AE       0.499000
     38 H15          1.6850    -3.2200    -1.0540 h4         1 6AE       0.021100
     39 H16          0.2680     1.4680     0.6670 hn         1 6AE       0.510000
     40 H17         -1.4600    -1.6050    -0.5520 ha         1 6AE       0.136500
     41 H18         -6.0260     1.1420    -2.0230 hn         1 6AE       0.469000
     42 H19         -7.1330    -0.0890    -1.8600 hn         1 6AE       0.469000
@<TRIPOS>BOND
     1     1     2 ar  
     2     1     5 ar  
     3     1    20 1   
     4     2     3 ar  
     5     2    24 1   
     6     3     4 ar  
     7     3    25 1   
     8     4    18 1   
     9     4    19 ar  
    10     5    19 ar  
    11     5    26 1   
    12     6    13 ar  
    13     6    15 ar  
    14     6    27 1   
    15     7     8 1   
    16     7     9 1   
    17     7    10 1   
    18     7    28 1   
    19     8    29 1   
    20     8    30 1   
    21     8    31 1   
    22     9    32 1   
    23    10    11 1   
    24    10    12 1   
    25    10    33 1   
    26    11    34 1   
    27    11    35 1   
    28    11    36 1   
    29    12    13 1   
    30    12    37 1   
    31    13    14 ar  
    32    14    17 ar  
    33    15    16 ar  
    34    15    38 1   
    35    16    17 ar  
    36    17    18 1   
    37    18    39 1   
    38    19    40 1   
    39    20    21 2   
    40    20    22 2   
    41    20    23 1   
    42    23    41 1   
    43    23    42 1   
@<TRIPOS>SUBSTRUCTURE
     1 6AE         1 TEMP              0 ****  ****    0 ROOT
