@<TRIPOS>MOLECULE
6AF
   47    49     1     0     0
SMALL
bcc


@<TRIPOS>ATOM
      1 C5           0.9040     0.0010     0.6430 ca         1 6AF       0.957900
      2 C7           1.9830    -1.6730     1.6920 ca         1 6AF       0.523200
      3 C10         -2.0650    -0.7890     1.0400 ca         1 6AF      -0.195500
      4 C13         -3.8330     1.1310     0.0640 ca         1 6AF      -0.009500
      5 C20         -6.6840    -0.0890    -1.9710 cx         1 6AF      -0.063900
      6 C22          4.3370     1.7960    -0.5460 c3         1 6AF       0.167100
      7 C26          4.1820     1.4840    -2.0220 c3         1 6AF      -0.110100
      8 C19         -7.8730    -0.7230    -1.3290 cx         1 6AF      -0.063900
      9 C18         -6.5050    -0.9640    -0.7740 cx         1 6AF      -0.215900
     10 N16         -6.8260     1.0610     0.8360 n2         1 6AF      -0.785900
     11 O17         -6.2680    -1.3200     1.8070 o          1 6AF      -0.586800
     12 C12         -4.3170    -0.0260     0.6630 ca         1 6AF      -0.302500
     13 C14         -2.4730     1.3230    -0.0520 ca         1 6AF      -0.195500
     14 C11         -3.4330    -0.9770     1.1480 ca         1 6AF      -0.009500
     15 C9          -1.5660     0.3680     0.4310 ca         1 6AF       0.228600
     16 N8          -0.2260     0.6590     0.2560 nu         1 6AF      -0.732300
     17 N4           2.0320     0.5940     0.2430 nb         1 6AF      -0.874000
     18 N6           0.8250    -1.1130     1.3490 nb         1 6AF      -0.780000
     19 C2           3.2000    -1.1420     1.3410 ca         1 6AF      -0.348500
     20 BR1          4.8160    -1.9370     1.8450 br         1 6AF      -0.042100
     21 C3           3.1730     0.0420     0.5790 ca         1 6AF       0.757600
     22 O21          4.3160     0.5730     0.2180 os         1 6AF      -0.403100
     23 C23          5.6310     2.5170    -0.2030 c3         1 6AF       0.151100
     24 C25          5.7580     2.8160     1.2840 c3         1 6AF      -0.131100
     25 O24          6.7140     1.7520    -0.6830 oh         1 6AF      -0.582800
     26 H1           1.9250    -2.5850     2.2760 h4         1 6AF       0.040100
     27 H2          -1.3950    -1.5370     1.4270 ha         1 6AF       0.153500
     28 H3          -4.5120     1.8890    -0.3030 ha         1 6AF       0.152000
     29 H5          -6.5580     0.9770    -1.8390 hc         1 6AF       0.087700
     30 H6           3.5140     2.4340    -0.2190 h1         1 6AF       0.067700
     31 H7           3.1980     1.0650    -2.2300 hc         1 6AF       0.053700
     32 H8           4.2770     2.4010    -2.6030 hc         1 6AF       0.053700
     33 H9           4.9400     0.7830    -2.3690 hc         1 6AF       0.053700
     34 H10         -8.5390    -0.0810    -0.7700 hc         1 6AF       0.087700
     35 H11         -8.3460    -1.5660    -1.8160 hc         1 6AF       0.087700
     36 H12         -6.0540    -1.9420    -0.8990 h1         1 6AF       0.124700
     37 H13         -6.5150     1.6350     1.6120 hn         1 6AF       0.424400
     38 H16         -2.1030     2.2290    -0.5150 ha         1 6AF       0.153500
     39 H17         -3.7990    -1.8800     1.6180 ha         1 6AF       0.152000
     40 H18         -0.0320     1.5070    -0.2560 hn         1 6AF       0.456800
     41 H19          5.5650     3.4760    -0.7370 h1         1 6AF       0.032700
     42 H20          6.6410     3.4290     1.4740 hc         1 6AF       0.047700
     43 H21          4.8930     3.3740     1.6450 hc         1 6AF       0.047700
     44 H22          5.8470     1.9020     1.8730 hc         1 6AF       0.047700
     45 H23          7.5210     2.2530    -0.5370 ho         1 6AF       0.405000
     46 S15         -6.0720    -0.2710     0.7870 sy         1 6AF       0.827000
     47 H4          -6.3220    -0.4820    -2.9120 hc         1 6AF       0.087700
@<TRIPOS>BOND
     1     1    16 1   
     2     1    17 ar  
     3     1    18 ar  
     4     2    18 ar  
     5     2    19 ar  
     6     2    26 1   
     7     3    14 ar  
     8     3    15 ar  
     9     3    27 1   
    10     4    12 ar  
    11     4    13 ar  
    12     4    28 1   
    13     5     8 1   
    14     5     9 1   
    15     5    29 1   
    16     5    47 1   
    17     6     7 1   
    18     6    22 1   
    19     6    23 1   
    20     6    30 1   
    21     7    31 1   
    22     7    32 1   
    23     7    33 1   
    24     8     9 1   
    25     8    34 1   
    26     8    35 1   
    27     9    36 1   
    28     9    46 1   
    29    10    37 1   
    30    10    46 2   
    31    11    46 2   
    32    12    14 ar  
    33    12    46 1   
    34    13    15 ar  
    35    13    38 1   
    36    14    39 1   
    37    15    16 1   
    38    16    40 1   
    39    17    21 ar  
    40    19    20 1   
    41    19    21 ar  
    42    21    22 1   
    43    23    24 1   
    44    23    25 1   
    45    23    41 1   
    46    24    42 1   
    47    24    43 1   
    48    24    44 1   
    49    25    45 1   
@<TRIPOS>SUBSTRUCTURE
     1 6AF         1 TEMP              0 ****  ****    0 ROOT
