@<TRIPOS>MOLECULE
6AF
   47    49     1     0     0
SMALL
No Charge or Current Charge


@<TRIPOS>ATOM
      1 C5           0.8820    -0.0320     0.4720 ca         1 6AF       0.431900
      2 C7           1.9390    -1.9530     1.1160 ca         1 6AF       0.194900
      3 C10         -2.1300    -0.3960     1.4040 ca         1 6AF      -0.177500
      4 C13         -3.9300     0.9090    -0.3080 ca         1 6AF       0.008500
      5 C20         -7.0380    -0.2260    -1.8780 cx         1 6AF      -0.063900
      6 C22          4.4940     1.9220    -0.3790 c3         1 6AF       0.190300
      7 C26          4.3100     1.6930    -1.8990 c3         1 6AF      -0.110100
      8 C19         -8.0810    -1.0000    -1.0930 cx         1 6AF      -0.063900
      9 C18         -6.6260    -1.0520    -0.6740 cx         1 6AF      -0.326700
     10 N16         -6.9320     1.1460     0.8020 n2         1 6AF      -0.785900
     11 O17         -6.4110    -1.1210     1.9950 o          1 6AF      -0.516000
     12 C12         -4.4190     0.0570     0.7010 ca         1 6AF      -0.302500
     13 C14         -2.5460     1.1030    -0.4530 ca         1 6AF      -0.177500
     14 C11         -3.5120    -0.5970     1.5590 ca         1 6AF       0.008500
     15 C9          -1.6390     0.4450     0.3900 ca         1 6AF       0.367000
     16 N8          -0.2730     0.6820     0.2110 nu         1 6AF      -0.925900
     17 N4           2.0070     0.6560     0.2500 nb         1 6AF      -0.348000
     18 N6           0.7820    -1.3060     0.8870 nb         1 6AF      -0.254000
     19 C2           3.1770    -1.3240     0.9210 ca         1 6AF      -0.217900
     20 Br1          4.8120    -2.2680     1.2590 br         1 6AF      -0.042100
     21 C3           3.1700     0.0080     0.4690 ca         1 6AF       0.429300
     22 O21          4.3810     0.6430     0.2910 os         1 6AF      -0.426300
     23 C23          5.8790     2.5600    -0.0200 c3         1 6AF       0.174300
     24 C25          6.0360     2.8390     1.4900 c3         1 6AF      -0.131100
     25 O24          6.9760     1.7340    -0.4500 oh         1 6AF      -0.645000
     26 H1           1.8700    -2.9840     1.4590 h4         1 6AF       0.040100
     27 H2          -1.4510    -0.8870     2.0910 ha         1 6AF       0.135500
     28 H3          -4.6130     1.4180    -0.9870 ha         1 6AF       0.134000
     29 H5          -7.0590     0.8590    -1.8100 hc         1 6AF       0.087700
     30 H6           3.7180     2.6160    -0.0290 h1         1 6AF       0.067700
     31 H7           3.2970     1.3440    -2.1270 hc         1 6AF       0.053700
     32 H8           4.4730     2.6280    -2.4480 hc         1 6AF       0.053700
     33 H9           5.0230     0.9470    -2.2720 hc         1 6AF       0.053700
     34 H10         -8.7850    -0.4310    -0.4890 hc         1 6AF       0.087700
     35 H11         -8.5070    -1.8860    -1.5600 hc         1 6AF       0.087700
     36 H12         -6.0530    -1.9680    -0.8010 h1         1 6AF       0.124700
     37 H13         -6.2190     1.8800     0.7620 hn         1 6AF       0.424400
     38 H16         -2.1810     1.7600    -1.2360 ha         1 6AF       0.135500
     39 H17         -3.8670    -1.2550     2.3500 ha         1 6AF       0.134000
     40 H18         -0.0760     1.5430    -0.2940 hn         1 6AF       0.512000
     41 H19          5.9330     3.5280    -0.5370 h1         1 6AF       0.032700
     42 H20          6.9810     3.3570     1.6930 hc         1 6AF       0.047700
     43 H21          5.2190     3.4750     1.8490 hc         1 6AF       0.047700
     44 H22          6.0240     1.9070     2.0670 hc         1 6AF       0.047700
     45 H23          7.8020     2.1990    -0.1940 ho         1 6AF       0.444000
     46 S15         -6.1900    -0.1970     0.8800 sy         1 6AF       0.867000
     47 H4          -6.7710    -0.6030    -2.8630 hc         1 6AF       0.087700
@<TRIPOS>BOND
     1     1    16 1   
     2     1    17 ar  
     3     1    18 ar  
     4     2    18 ar  
     5     2    19 ar  
     6     2    26 1   
     7     3    14 ar  
     8     3    15 ar  
     9     3    27 1   
    10     4    12 ar  
    11     4    13 ar  
    12     4    28 1   
    13     5     8 1   
    14     5     9 1   
    15     5    29 1   
    16     5    47 1   
    17     6     7 1   
    18     6    22 1   
    19     6    23 1   
    20     6    30 1   
    21     7    31 1   
    22     7    32 1   
    23     7    33 1   
    24     8     9 1   
    25     8    34 1   
    26     8    35 1   
    27     9    36 1   
    28     9    46 1   
    29    10    37 1   
    30    10    46 2   
    31    11    46 2   
    32    12    14 ar  
    33    12    46 1   
    34    13    15 ar  
    35    13    38 1   
    36    14    39 1   
    37    15    16 1   
    38    16    40 1   
    39    17    21 ar  
    40    19    20 1   
    41    19    21 ar  
    42    21    22 1   
    43    23    24 1   
    44    23    25 1   
    45    23    41 1   
    46    24    42 1   
    47    24    43 1   
    48    24    44 1   
    49    25    45 1   
@<TRIPOS>SUBSTRUCTURE
     1 6AF         1 TEMP              0 ****  ****    0 ROOT
