@<TRIPOS>MOLECULE
6AH
   23    22     1     0     0
SMALL
abcg2


@<TRIPOS>ATOM
      1 O            4.2670    -0.3130    -0.0310 oh         1 6AH      -0.663000
      2 C1           3.1120     0.4980     0.0280 c3         1 6AH       0.163600
      3 C2           1.8790    -0.3830     0.0020 c3         1 6AH      -0.081400
      4 C3           0.5940     0.4340     0.0460 c3         1 6AH      -0.074400
      5 C4          -0.6620    -0.4280     0.0210 c3         1 6AH      -0.074400
      6 C5          -1.9460     0.3910     0.0460 c3         1 6AH      -0.078400
      7 C6          -3.1980    -0.4720     0.0280 c3         1 6AH       0.149800
      8 N           -4.4000     0.3500     0.0480 n8         1 6AH      -0.995200
      9 H1           5.0380     0.2620    -0.0140 ho         1 6AH       0.442000
     10 H2           1.8910    -0.9990    -0.9040 hc         1 6AH       0.052200
     11 H3           1.9050    -1.0720     0.8520 hc         1 6AH       0.052200
     12 H4           0.5860     1.0570     0.9470 hc         1 6AH       0.037700
     13 H5           0.5720     1.1260    -0.8030 hc         1 6AH       0.037700
     14 H6          -0.6490    -1.0600    -0.8740 hc         1 6AH       0.038200
     15 H7          -0.6490    -1.1130     0.8760 hc         1 6AH       0.038200
     16 H8          -1.9630     1.0290     0.9360 hc         1 6AH       0.045200
     17 H9          -1.9600     1.0660    -0.8180 hc         1 6AH       0.045200
     18 H10         -3.1470    -1.1520    -0.8350 h1         1 6AH       0.026200
     19 H11         -3.2040    -1.1090     0.9170 h1         1 6AH       0.026200
     20 H12         -4.4640     0.8620    -0.8240 hn         1 6AH       0.390500
     21 H13         -5.2170    -0.2470     0.0700 hn         1 6AH       0.390500
     22 H16          3.0990     1.1090     0.9410 h1         1 6AH       0.015200
     23 H14          3.0720     1.1980    -0.8180 h1         1 6AH       0.015200
@<TRIPOS>BOND
     1     1     2 1   
     2     1     9 1   
     3     2     3 1   
     4     2    22 1   
     5     2    23 1   
     6     3     4 1   
     7     3    10 1   
     8     3    11 1   
     9     4     5 1   
    10     4    12 1   
    11     4    13 1   
    12     5     6 1   
    13     5    14 1   
    14     5    15 1   
    15     6     7 1   
    16     6    16 1   
    17     6    17 1   
    18     7     8 1   
    19     7    18 1   
    20     7    19 1   
    21     8    20 1   
    22     8    21 1   
@<TRIPOS>SUBSTRUCTURE
     1 6AH         1 TEMP              0 ****  ****    0 ROOT
