@<TRIPOS>MOLECULE
6AH
   23    22     1     0     0
SMALL
No Charge or Current Charge


@<TRIPOS>ATOM
      1 O            4.3390    -0.3290    -0.0090 oh         1 6AH      -0.663000
      2 C1           3.1740     0.5020     0.0210 c3         1 6AH       0.163600
      3 C2           1.9070    -0.3770     0.0070 c3         1 6AH      -0.081400
      4 C3           0.6010     0.4490     0.0380 c3         1 6AH      -0.074400
      5 C4          -0.6700    -0.4290     0.0240 c3         1 6AH      -0.074400
      6 C5          -1.9760     0.3960     0.0550 c3         1 6AH      -0.078400
      7 C6          -3.2410    -0.4870     0.0410 c3         1 6AH       0.149800
      8 N           -4.4700     0.3270     0.0740 n8         1 6AH      -0.995200
      9 H1           5.1180     0.2720     0.0010 ho         1 6AH       0.442000
     10 H2           1.9160    -1.0050    -0.8920 hc         1 6AH       0.052200
     11 H3           1.9290    -1.0510     0.8720 hc         1 6AH       0.052200
     12 H4           0.5950     1.0780     0.9370 hc         1 6AH       0.037700
     13 H5           0.5830     1.1240    -0.8270 hc         1 6AH       0.037700
     14 H6          -0.6630    -1.0590    -0.8750 hc         1 6AH       0.038200
     15 H7          -0.6510    -1.1050     0.8880 hc         1 6AH       0.038200
     16 H8          -1.9830     1.0230     0.9540 hc         1 6AH       0.045200
     17 H9          -1.9950     1.0700    -0.8100 hc         1 6AH       0.045200
     18 H10         -3.2520    -1.1050    -0.8670 h1         1 6AH       0.026200
     19 H11         -3.2380    -1.1520     0.9160 h1         1 6AH       0.026200
     20 H12         -4.5190     0.8910    -0.7840 hn         1 6AH       0.390500
     21 H13         -5.2850    -0.2950    -0.0010 hn         1 6AH       0.390500
     22 H16          3.1750     1.1240     0.9260 h1         1 6AH       0.015200
     23 H14          3.1620     1.1710    -0.8500 h1         1 6AH       0.015200
@<TRIPOS>BOND
     1     1     2 1   
     2     1     9 1   
     3     2     3 1   
     4     2    22 1   
     5     2    23 1   
     6     3     4 1   
     7     3    10 1   
     8     3    11 1   
     9     4     5 1   
    10     4    12 1   
    11     4    13 1   
    12     5     6 1   
    13     5    14 1   
    14     5    15 1   
    15     6     7 1   
    16     6    16 1   
    17     6    17 1   
    18     7     8 1   
    19     7    18 1   
    20     7    19 1   
    21     8    20 1   
    22     8    21 1   
@<TRIPOS>SUBSTRUCTURE
     1 6AH         1 TEMP              0 ****  ****    0 ROOT
