@<TRIPOS>MOLECULE
6AI
   17    18     1     0     0
SMALL
bcc


@<TRIPOS>ATOM
      1 NAA          3.1860    -0.6410    -0.1790 nv         1 6AI      -0.825200
      2 CAB          1.6170     1.1860    -0.0750 ca         1 6AI      -0.221000
      3 CAC          0.3390     1.6810    -0.0390 ca         1 6AI      -0.015000
      4 CAD         -2.1540     0.8640     0.0260 cc         1 6AI       0.368800
      5 CAE          0.8290    -1.1200    -0.0540 ca         1 6AI      -0.242000
      6 NAF         -2.6930    -0.3280     0.0410 nd         1 6AI      -0.527100
      7 NAG         -1.6760    -1.2040     0.0120 na         1 6AI      -0.022100
      8 CAH          1.8790    -0.2150    -0.0850 ca         1 6AI       0.191600
      9 CAI         -0.7370     0.7820    -0.0130 ca         1 6AI      -0.275900
     10 CAJ         -0.4680    -0.5980    -0.0210 ca         1 6AI       0.007800
     11 HNAA         3.8820     0.0010     0.1640 hn         1 6AI       0.395300
     12 HNAB         3.3670    -1.5860     0.1180 hn         1 6AI       0.395300
     13 HAC          0.1710     2.7510    -0.0310 ha         1 6AI       0.134000
     14 HAD         -2.7750     1.7470     0.0440 h4         1 6AI       0.046800
     15 HAE          1.0070    -2.1880    -0.0560 ha         1 6AI       0.136000
     16 HNAG        -1.8730    -2.1910     0.0170 hn         1 6AI       0.321700
     17 HAB          2.4570     1.8690    -0.0970 ha         1 6AI       0.131000
@<TRIPOS>BOND
     1     1     8 1   
     2     1    11 1   
     3     1    12 1   
     4     2     3 ar  
     5     2     8 ar  
     6     2    17 1   
     7     3     9 ar  
     8     3    13 1   
     9     4     6 2   
    10     4     9 1   
    11     4    14 1   
    12     5     8 ar  
    13     5    10 ar  
    14     5    15 1   
    15     6     7 1   
    16     7    10 1   
    17     7    16 1   
    18     9    10 ar  
@<TRIPOS>SUBSTRUCTURE
     1 6AI         1 TEMP              0 ****  ****    0 ROOT
