@<TRIPOS>MOLECULE
6AI
   17    18     1     0     0
SMALL
No Charge or Current Charge


@<TRIPOS>ATOM
      1 NAA          3.1790    -0.6520    -0.0860 nv         1 6AI      -1.074000
      2 CAB          1.6440     1.1980    -0.0600 ca         1 6AI      -0.203000
      3 CAC          0.3200     1.6900    -0.0340 ca         1 6AI       0.003000
      4 CAD         -2.1460     0.8850     0.0160 cc         1 6AI       0.368800
      5 CAE          0.8270    -1.1110    -0.0400 ca         1 6AI      -0.224000
      6 NAF         -2.7610    -0.3110     0.0300 nd         1 6AI      -0.527100
      7 NAG         -1.6940    -1.2230     0.0100 na         1 6AI      -0.072400
      8 CAH          1.8940    -0.1930    -0.0630 ca         1 6AI       0.330000
      9 CAI         -0.7120     0.7440    -0.0120 ca         1 6AI      -0.275900
     10 CAJ         -0.4710    -0.5910    -0.0150 ca         1 6AI       0.007800
     11 HNAA         3.9470    -0.0010     0.0630 hn         1 6AI       0.450500
     12 HNAB         3.3630    -1.6400     0.0760 hn         1 6AI       0.450500
     13 HAC          0.1130     2.7590    -0.0320 ha         1 6AI       0.116000
     14 HAD         -2.7710     1.7690     0.0270 h4         1 6AI       0.046800
     15 HAE          1.0030    -2.1830    -0.0430 ha         1 6AI       0.118000
     16 HNAG        -1.8490    -2.2310     0.0140 hn         1 6AI       0.372000
     17 HAB          2.4730     1.9000    -0.0780 ha         1 6AI       0.113000
@<TRIPOS>BOND
     1     1     8 1   
     2     1    11 1   
     3     1    12 1   
     4     2     3 ar  
     5     2     8 ar  
     6     2    17 1   
     7     3     9 ar  
     8     3    13 1   
     9     4     6 2   
    10     4     9 1   
    11     4    14 1   
    12     5     8 ar  
    13     5    10 ar  
    14     5    15 1   
    15     6     7 1   
    16     7    10 1   
    17     7    16 1   
    18     9    10 ar  
@<TRIPOS>SUBSTRUCTURE
     1 6AI         1 TEMP              0 ****  ****    0 ROOT
