@<TRIPOS>MOLECULE
6AJ
   53    57     1     0     0
SMALL
bcc


@<TRIPOS>ATOM
      1 C1           0.8140     2.1170    -0.3950 ca         1 6AJ      -0.043300
      2 C2           0.4540     3.2720    -1.0670 ca         1 6AJ      -0.147000
      3 C3           0.1100     4.4020    -0.3510 ca         1 6AJ       0.160900
      4 C4           0.0930     4.4310     1.0300 ca         1 6AJ      -0.168000
      5 C5           0.4530     3.2820     1.7070 ca         1 6AJ      -0.070000
      6 C6           0.8210     2.1320     1.0050 ca         1 6AJ      -0.013000
      7 C7          -1.8770     0.2420    -0.7780 c          1 6AJ       0.777100
      8 C8          -0.7160    -0.5110    -0.4560 cc         1 6AJ      -0.371200
      9 C9          -0.7760    -1.7370     0.1840 cd         1 6AJ       0.622300
     10 C11          1.2610    -1.4340    -0.3150 cc         1 6AJ       0.690400
     11 C15          1.2340     0.9130    -1.1970 c3         1 6AJ       0.095600
     12 C17          3.2580    -2.5050     0.4710 c6         1 6AJ       0.203800
     13 C18          4.7460    -2.1840     0.5590 c6         1 6AJ       0.158500
     14 C19          5.3720    -2.2400    -0.8400 c6         1 6AJ      -0.118400
     15 C20          4.6250    -1.3420    -1.8190 c6         1 6AJ      -0.079400
     16 C21          3.1430    -1.6680    -1.8140 c6         1 6AJ       0.193800
     17 C30          1.2200     0.9930     1.7650 cg         1 6AJ       0.214800
     18 C26         -5.1430    -0.9990     0.3350 c          1 6AJ       0.702500
     19 C23         -2.9610    -1.6010     0.3960 cc         1 6AJ       0.540500
     20 C25         -4.3520     0.0770    -0.3750 c5         1 6AJ       0.000000
     21 N31          1.5490     0.1030     2.4200 n1         1 6AJ      -0.328800
     22 N10          0.4480    -2.3020     0.2550 nd         1 6AJ      -0.687000
     23 N13         -1.9190    -2.3120     0.6420 nd         1 6AJ      -0.675700
     24 N12          0.6180    -0.3180    -0.7530 na         1 6AJ      -0.173900
     25 N16          2.6130    -1.5740    -0.4480 nh         1 6AJ      -0.766300
     26 N24         -2.9970    -0.4060    -0.2530 n          1 6AJ      -0.417300
     27 N27         -4.2430    -1.9470     0.7430 n          1 6AJ      -0.397300
     28 N22          4.9250    -0.9170     1.2540 n8         1 6AJ      -0.876800
     29 O28         -6.3350    -1.0280     0.5090 o          1 6AJ      -0.563500
     30 F32         -0.2290     5.5040    -1.0240 f          1 6AJ      -0.132900
     31 H1           0.4330     3.2940    -2.1490 ha         1 6AJ       0.159000
     32 H2          -0.1930     5.3270     1.5650 ha         1 6AJ       0.158000
     33 H3           0.4570     3.2750     2.7880 ha         1 6AJ       0.150000
     34 H4           1.0170     1.0830    -2.2520 h1         1 6AJ       0.078200
     35 H5           2.3140     0.7870    -1.1030 h1         1 6AJ       0.078200
     36 H6           3.1230    -3.5430     0.1410 h1         1 6AJ       0.070700
     37 H7           2.8020    -2.4040     1.4540 h1         1 6AJ       0.070700
     38 H8           5.2030    -2.9690     1.1700 h1         1 6AJ       0.070700
     39 H9           6.4260    -1.9550    -0.7830 hc         1 6AJ       0.047700
     40 H10          5.3480    -3.2730    -1.2020 hc         1 6AJ       0.047700
     41 H11          4.7680    -0.2900    -1.5570 hc         1 6AJ       0.047200
     42 H12          5.0130    -1.4700    -2.8310 hc         1 6AJ       0.047200
     43 H13          2.6000    -0.9900    -2.4730 h1         1 6AJ       0.043700
     44 H14          2.9790    -2.6830    -2.2000 h1         1 6AJ       0.043700
     45 H15         -4.6640     0.1610    -1.4180 h1         1 6AJ       0.102200
     46 H16         -4.4880     1.0450     0.1090 h1         1 6AJ       0.102200
     47 H17         -4.2440    -3.0810     2.5040 h1         1 6AJ       0.060367
     48 H18         -5.6390    -3.3030     1.4350 h1         1 6AJ       0.060367
     49 H19         -4.0750    -4.0080     1.0010 h1         1 6AJ       0.060367
     50 H20          5.8830    -0.6050     1.1560 hn         1 6AJ       0.340800
     51 H21          4.3510    -0.2040     0.8210 hn         1 6AJ       0.340800
     52 O14         -1.9890     1.2820    -1.4040 o          1 6AJ      -0.616500
     53 C29         -4.5640    -3.1560     1.4660 c3         1 6AJ       0.104300
@<TRIPOS>BOND
     1     1     2 ar  
     2     1     6 ar  
     3     1    11 1   
     4     2     3 ar  
     5     2    31 1   
     6     3     4 ar  
     7     3    30 1   
     8     4     5 ar  
     9     4    32 1   
    10     5     6 ar  
    11     5    33 1   
    12     6    17 1   
    13     7     8 1   
    14     7    26 1   
    15     7    52 2   
    16     8     9 2   
    17     8    24 1   
    18     9    22 1   
    19     9    23 1   
    20    10    22 2   
    21    10    24 1   
    22    10    25 1   
    23    11    24 1   
    24    11    34 1   
    25    11    35 1   
    26    12    13 1   
    27    12    25 1   
    28    12    36 1   
    29    12    37 1   
    30    13    14 1   
    31    13    28 1   
    32    13    38 1   
    33    14    15 1   
    34    14    39 1   
    35    14    40 1   
    36    15    16 1   
    37    15    41 1   
    38    15    42 1   
    39    16    25 1   
    40    16    43 1   
    41    16    44 1   
    42    17    21 3   
    43    18    20 1   
    44    18    27 1   
    45    18    29 2   
    46    19    23 2   
    47    19    26 1   
    48    19    27 1   
    49    20    26 1   
    50    20    45 1   
    51    20    46 1   
    52    27    53 1   
    53    28    50 1   
    54    28    51 1   
    55    47    53 1   
    56    48    53 1   
    57    49    53 1   
@<TRIPOS>SUBSTRUCTURE
     1 6AJ         1 TEMP              0 ****  ****    0 ROOT
