@<TRIPOS>MOLECULE
6AJ
   53    57     1     0     0
SMALL
No Charge or Current Charge


@<TRIPOS>ATOM
      1 C1           0.8820     2.1790    -0.3760 ca         1 6AJ      -0.043300
      2 C2           0.3420     3.3050    -1.0380 ca         1 6AJ      -0.129000
      3 C3           0.0560     4.4830    -0.3360 ca         1 6AJ       0.196000
      4 C4           0.3120     4.5690     1.0370 ca         1 6AJ      -0.150000
      5 C5           0.8630     3.4670     1.7120 ca         1 6AJ      -0.052000
      6 C6           1.1540     2.2730     1.0190 ca         1 6AJ      -0.013000
      7 C7          -1.9850     0.1980    -0.7300 c          1 6AJ       0.634600
      8 C8          -0.7780    -0.5790    -0.4700 cc         1 6AJ      -0.356600
      9 C9          -0.7950    -1.8120     0.1280 cd         1 6AJ       0.557000
     10 C11          1.2510    -1.4680    -0.3040 cc         1 6AJ       0.690400
     11 C15          1.1660     0.9220    -1.2130 c3         1 6AJ       0.124900
     12 C17          3.3250    -2.5600     0.5190 c6         1 6AJ       0.203800
     13 C18          4.8410    -2.1740     0.6090 c6         1 6AJ       0.158500
     14 C19          5.4790    -2.2290    -0.8040 c6         1 6AJ      -0.118400
     15 C20          4.6730    -1.3720    -1.8200 c6         1 6AJ      -0.079400
     16 C21          3.1720    -1.7610    -1.8250 c6         1 6AJ       0.193800
     17 C30          1.7380     1.1920     1.7690 cg         1 6AJ       0.304000
     18 C26         -5.2970    -1.0260     0.2750 c          1 6AJ       0.560000
     19 C23         -3.0340    -1.6740     0.3220 cc         1 6AJ       0.540500
     20 C25         -4.4720     0.0840    -0.3820 c5         1 6AJ       0.000000
     21 N31          2.2080     0.3300     2.4010 n1         1 6AJ      -0.418000
     22 N10          0.4460    -2.3570     0.2340 nd         1 6AJ      -0.687000
     23 N13         -1.9640    -2.4100     0.5580 nd         1 6AJ      -0.675700
     24 N12          0.5660    -0.3310    -0.7060 na         1 6AJ      -0.152500
     25 N16          2.5980    -1.6870    -0.4550 nh         1 6AJ      -0.766300
     26 N24         -3.1070    -0.4540    -0.2760 n          1 6AJ      -0.350300
     27 N27         -4.3450    -1.9900     0.6310 n          1 6AJ      -0.330300
     28 N22          5.0360    -0.8190     1.1860 n8         1 6AJ      -0.987200
     29 O28         -6.5030    -1.0930     0.4680 o          1 6AJ      -0.488000
     30 F32         -0.4680     5.5440    -0.9880 f          1 6AJ      -0.168000
     31 H1           0.1290     3.2650    -2.1030 ha         1 6AJ       0.141000
     32 H2           0.0900     5.4870     1.5750 ha         1 6AJ       0.140000
     33 H3           1.0670     3.5440     2.7780 ha         1 6AJ       0.132000
     34 H4           0.8050     1.0710    -2.2390 h1         1 6AJ       0.078200
     35 H5           2.2540     0.8030    -1.2740 h1         1 6AJ       0.078200
     36 H6           3.2410    -3.6130     0.2140 h1         1 6AJ       0.070700
     37 H7           2.8770    -2.4830     1.5210 h1         1 6AJ       0.070700
     38 H8           5.3500    -2.8950     1.2680 h1         1 6AJ       0.070700
     39 H9           6.5240    -1.8910    -0.7680 hc         1 6AJ       0.047700
     40 H10          5.5050    -3.2720    -1.1480 hc         1 6AJ       0.047700
     41 H11          4.7730    -0.3050    -1.5810 hc         1 6AJ       0.047200
     42 H12          5.0880    -1.5020    -2.8290 hc         1 6AJ       0.047200
     43 H13          2.6290    -1.1030    -2.5180 h1         1 6AJ       0.043700
     44 H14          3.0680    -2.7860    -2.2120 h1         1 6AJ       0.043700
     45 H15         -4.7940     0.2110    -1.4220 h1         1 6AJ       0.102200
     46 H16         -4.6010     1.0170     0.1800 h1         1 6AJ       0.102200
     47 H17         -4.7700    -3.0780     2.3950 h1         1 6AJ       0.060367
     48 H18         -5.7450    -3.5520     0.9740 h1         1 6AJ       0.060367
     49 H19         -4.0370    -4.0440     1.0820 h1         1 6AJ       0.060367
     50 H20          4.5800    -0.1670     0.5400 hn         1 6AJ       0.396000
     51 H21          4.4460    -0.7380     2.0230 hn         1 6AJ       0.396000
     52 O14         -2.0220     1.2840    -1.2850 o          1 6AJ      -0.541000
     53 C29         -4.7480    -3.2400     1.3100 c3         1 6AJ       0.104300
@<TRIPOS>BOND
     1     1     2 ar  
     2     1     6 ar  
     3     1    11 1   
     4     2     3 ar  
     5     2    31 1   
     6     3     4 ar  
     7     3    30 1   
     8     4     5 ar  
     9     4    32 1   
    10     5     6 ar  
    11     5    33 1   
    12     6    17 1   
    13     7     8 1   
    14     7    26 1   
    15     7    52 2   
    16     8     9 2   
    17     8    24 1   
    18     9    22 1   
    19     9    23 1   
    20    10    22 2   
    21    10    24 1   
    22    10    25 1   
    23    11    24 1   
    24    11    34 1   
    25    11    35 1   
    26    12    13 1   
    27    12    25 1   
    28    12    36 1   
    29    12    37 1   
    30    13    14 1   
    31    13    28 1   
    32    13    38 1   
    33    14    15 1   
    34    14    39 1   
    35    14    40 1   
    36    15    16 1   
    37    15    41 1   
    38    15    42 1   
    39    16    25 1   
    40    16    43 1   
    41    16    44 1   
    42    17    21 3   
    43    18    20 1   
    44    18    27 1   
    45    18    29 2   
    46    19    23 2   
    47    19    26 1   
    48    19    27 1   
    49    20    26 1   
    50    20    45 1   
    51    20    46 1   
    52    27    53 1   
    53    28    50 1   
    54    28    51 1   
    55    47    53 1   
    56    48    53 1   
    57    49    53 1   
@<TRIPOS>SUBSTRUCTURE
     1 6AJ         1 TEMP              0 ****  ****    0 ROOT
