@<TRIPOS>MOLECULE
6AK
   88    94     1     0     0
SMALL
No Charge or Current Charge


@<TRIPOS>ATOM
      1 C14          3.0970    -0.4020     0.7730 c3         1 6AK       0.068600
      2 C11          0.9550    -0.3990    -0.5700 cc         1 6AK      -0.110300
      3 C10         -3.8200    -1.2520    -0.3910 c3         1 6AK       0.163600
      4 C12          0.6140     1.0650    -0.5760 c          1 6AK       0.589200
      5 C13          3.0580     1.5470    -0.9050 c3         1 6AK       0.113000
      6 C01          2.0590    -2.4160    -0.3250 ca         1 6AK      -0.013200
      7 C02          3.0320    -3.4400    -0.2010 ca         1 6AK      -0.001000
      8 C03          2.5730    -4.7820    -0.2900 ca         1 6AK       0.144000
      9 Cl           3.6940    -6.1440    -0.2150 cl         1 6AK      -0.220000
     10 C04          1.2130    -5.0680    -0.5430 ca         1 6AK      -0.149000
     11 C05          0.2890    -4.0270    -0.7360 ca         1 6AK      -0.050000
     12 C06          0.7570    -2.7120    -0.6270 ca         1 6AK      -0.114800
     13 C07          0.0660    -1.4550    -0.8040 cd         1 6AK      -0.093400
     14 C08         -1.3890    -1.3650    -1.2130 c3         1 6AK       0.003800
     15 C09         -2.3360    -1.3490     0.0050 c3         1 6AK      -0.081400
     16 O01         -4.5940    -1.2610     0.8200 os         1 6AK      -0.340100
     17 O02         -0.5380     1.4800    -0.6490 o          1 6AK      -0.524000
     18 N01          1.7070     1.9750    -0.4660 n          1 6AK      -0.225400
     19 N02          2.1580    -1.0300    -0.1810 na         1 6AK      -0.064700
     20 C15          3.8560     0.8000     0.1810 c3         1 6AK      -0.111400
     21 N03          6.4620    -2.2930    -0.3090 na         1 6AK       0.128800
     22 C16          7.6440    -1.5810    -0.8190 c3         1 6AK       0.073900
     23 C17          5.2050    -2.3410    -0.9090 cc         1 6AK      -0.113300
     24 C18          4.8470    -1.7140    -2.2360 c3         1 6AK      -0.032800
     25 C19          4.4730    -3.1510    -0.0800 cd         1 6AK      -0.165000
     26 C20          5.3200    -3.4800     1.0080 cd         1 6AK       0.285300
     27 C21          4.9520    -4.2400     2.2540 c3         1 6AK      -0.121400
     28 N04          6.5350    -2.9830     0.8820 nc         1 6AK      -0.528800
     29 C22         -8.7850    -1.0440     0.9270 ca         1 6AK       0.075000
     30 Cl2        -10.5520    -0.9540     1.0000 cl         1 6AK      -0.230000
     31 C23         -8.0350    -1.1340     2.1210 ca         1 6AK      -0.026800
     32 C24         -8.7210    -1.1560     3.4830 c3         1 6AK      -0.046300
     33 C25         -6.6310    -1.2060     2.0510 ca         1 6AK      -0.174000
     34 C26         -5.9720    -1.1880     0.8130 ca         1 6AK       0.167100
     35 C27         -6.7230    -1.0980    -0.3760 ca         1 6AK      -0.174000
     36 C28         -8.1300    -1.0260    -0.3260 ca         1 6AK      -0.026800
     37 C29         -8.9230    -0.9290    -1.6260 c3         1 6AK      -0.046300
     38 C30          0.7320     6.1160     0.1020 ca         1 6AK      -0.103000
     39 C31          0.3580     5.1600     1.0810 ca         1 6AK      -0.115600
     40 C32         -0.4340     5.5800     2.3100 c          1 6AK       0.715600
     41 O03         -0.6980     4.7370     3.1560 o          1 6AK      -0.716500
     42 O04         -0.7770     6.7510     2.4140 o          1 6AK      -0.716500
     43 C33          0.7190     3.7960     0.8830 ca         1 6AK      -0.078000
     44 C34          1.5020     3.3810    -0.2210 ca         1 6AK      -0.068000
     45 C35          1.7620     4.3580    -1.2020 ca         1 6AK      -0.107800
     46 C36          1.4200     5.6740    -1.0370 ca         1 6AK      -0.057200
     47 N05          1.8080     6.3910    -2.1640 na         1 6AK      -0.092700
     48 C37          1.5940     7.8420    -2.2820 c3         1 6AK       0.072900
     49 C38          2.3880     5.5370    -3.1200 cc         1 6AK      -0.189100
     50 C39          2.3500     4.2870    -2.5230 cd         1 6AK      -0.246200
     51 H1           2.4920    -0.0400     1.6150 h1         1 6AK       0.076700
     52 H2           3.7990    -1.1280     1.1920 h1         1 6AK       0.076700
     53 H3          -3.9900    -0.3250    -0.9540 h1         1 6AK       0.032700
     54 H4          -4.0860    -2.1070    -1.0270 h1         1 6AK       0.032700
     55 H5           2.9670     0.9220    -1.8040 h1         1 6AK       0.053200
     56 H6           3.6480     2.4260    -1.1870 h1         1 6AK       0.053200
     57 H7           0.8860    -6.1010    -0.6290 ha         1 6AK       0.121000
     58 H8          -0.7530    -4.2420    -0.9630 ha         1 6AK       0.116000
     59 H9          -1.5670    -0.4820    -1.8370 hc         1 6AK       0.046700
     60 H10         -1.6470    -2.2190    -1.8490 hc         1 6AK       0.046700
     61 H11         -2.0810    -0.5000     0.6510 hc         1 6AK       0.068700
     62 H12         -2.1790    -2.2600     0.5940 hc         1 6AK       0.068700
     63 H13          4.1140     1.4930     0.9910 hc         1 6AK       0.057200
     64 H14          4.8030     0.4590    -0.2490 hc         1 6AK       0.057200
     65 H15          7.4470    -0.5030    -0.8190 h1         1 6AK       0.053367
     66 H16          8.5140    -1.7910    -0.1850 h1         1 6AK       0.053367
     67 H17          7.8560    -1.9120    -1.8430 h1         1 6AK       0.053367
     68 H18          5.3300    -2.2570    -3.0570 hc         1 6AK       0.052367
     69 H19          3.7670    -1.7360    -2.4190 hc         1 6AK       0.052367
     70 H20          5.1760    -0.6710    -2.2890 hc         1 6AK       0.052367
     71 H21          5.3490    -5.2610     2.2200 hc         1 6AK       0.050033
     72 H22          5.3570    -3.7510     3.1480 hc         1 6AK       0.050033
     73 H23          3.8650    -4.3030     2.3770 hc         1 6AK       0.050033
     74 H24         -9.3990    -2.0130     3.5690 hc         1 6AK       0.046533
     75 H25         -7.9970    -1.2290     4.3040 hc         1 6AK       0.046533
     76 H26         -9.3060    -0.2430     3.6440 hc         1 6AK       0.046533
     77 H27         -6.0410    -1.2750     2.9610 ha         1 6AK       0.126500
     78 H28         -6.2310    -1.0830    -1.3440 ha         1 6AK       0.126500
     79 H29         -9.5160    -0.0070    -1.6570 hc         1 6AK       0.046533
     80 H30         -8.2690    -0.9260    -2.5050 hc         1 6AK       0.046533
     81 H31         -9.6100    -1.7770    -1.7320 hc         1 6AK       0.046533
     82 H32          0.4600     7.1630     0.2110 ha         1 6AK       0.135000
     83 H34          0.4100     3.0500     1.6120 ha         1 6AK       0.134000
     84 H35          2.0950     8.3560    -1.4530 h1         1 6AK       0.040700
     85 H36          2.0070     8.2020    -3.2320 h1         1 6AK       0.040700
     86 H37          0.5190     8.0590    -2.2500 h1         1 6AK       0.040700
     87 H38          2.7460     5.8720    -4.0890 h4         1 6AK       0.190000
     88 H39          2.6970     3.3790    -3.0100 ha         1 6AK       0.188000
@<TRIPOS>BOND
     1     1    19 1   
     2     1    20 1   
     3     1    51 1   
     4     1    52 1   
     5     2     4 1   
     6     2    13 2   
     7     2    19 1   
     8     3    15 1   
     9     3    16 1   
    10     3    53 1   
    11     3    54 1   
    12     4    17 2   
    13     4    18 1   
    14     5    18 1   
    15     5    20 1   
    16     5    55 1   
    17     5    56 1   
    18     6     7 ar  
    19     6    12 ar  
    20     6    19 1   
    21     7     8 ar  
    22     7    25 1   
    23     8     9 1   
    24     8    10 ar  
    25    10    11 ar  
    26    10    57 1   
    27    11    12 ar  
    28    11    58 1   
    29    12    13 1   
    30    13    14 1   
    31    14    15 1   
    32    14    59 1   
    33    14    60 1   
    34    15    61 1   
    35    15    62 1   
    36    16    34 1   
    37    18    44 1   
    38    20    63 1   
    39    20    64 1   
    40    21    22 1   
    41    21    23 1   
    42    21    28 1   
    43    22    65 1   
    44    22    66 1   
    45    22    67 1   
    46    23    24 1   
    47    23    25 2   
    48    24    68 1   
    49    24    69 1   
    50    24    70 1   
    51    25    26 1   
    52    26    27 1   
    53    26    28 2   
    54    27    71 1   
    55    27    72 1   
    56    27    73 1   
    57    29    30 1   
    58    29    31 ar  
    59    29    36 ar  
    60    31    32 1   
    61    31    33 ar  
    62    32    74 1   
    63    32    75 1   
    64    32    76 1   
    65    33    34 ar  
    66    33    77 1   
    67    34    35 ar  
    68    35    36 ar  
    69    35    78 1   
    70    36    37 1   
    71    37    79 1   
    72    37    80 1   
    73    37    81 1   
    74    38    39 ar  
    75    38    46 ar  
    76    38    82 1   
    77    39    40 1   
    78    39    43 ar  
    79    40    41 1   
    80    40    42 1   
    81    43    44 ar  
    82    43    83 1   
    83    44    45 ar  
    84    45    46 ar  
    85    45    50 1   
    86    46    47 1   
    87    47    48 1   
    88    47    49 1   
    89    48    84 1   
    90    48    85 1   
    91    48    86 1   
    92    49    50 2   
    93    49    87 1   
    94    50    88 1   
@<TRIPOS>SUBSTRUCTURE
     1 6AK         1 TEMP              0 ****  ****    0 ROOT
