@<TRIPOS>MOLECULE
6AK
   88    94     1     0     0
SMALL
bcc


@<TRIPOS>ATOM
      1 C14          3.1190    -0.1250     0.6610 c3         1 6AK       0.039300
      2 C11          0.8740    -0.3540    -0.3500 cc         1 6AK      -0.110300
      3 C10         -3.8230    -1.2810    -0.3810 c3         1 6AK       0.140400
      4 C12          0.6010     1.0980    -0.2330 c          1 6AK       0.731700
      5 C13          2.8230     1.4740    -1.2430 c3         1 6AK       0.113000
      6 C01          2.0380    -2.2540    -0.2320 ca         1 6AK      -0.013200
      7 C02          3.0220    -3.2520    -0.0970 ca         1 6AK      -0.001000
      8 C03          2.5930    -4.5460    -0.3540 ca         1 6AK       0.052400
      9 CL           3.7320    -5.8480    -0.2150 cl         1 6AK      -0.128400
     10 C04          1.2900    -4.8730    -0.7550 ca         1 6AK      -0.167000
     11 C05          0.3590    -3.8760    -0.9280 ca         1 6AK      -0.068000
     12 C06          0.7250    -2.5540    -0.6650 ca         1 6AK      -0.114800
     13 C07         -0.0030    -1.3300    -0.7390 cd         1 6AK      -0.093400
     14 C08         -1.4340    -1.1950    -1.1380 c3         1 6AK       0.003800
     15 C09         -2.3780    -1.4160     0.0470 c3         1 6AK      -0.081400
     16 O01         -4.6440    -1.5080     0.7540 os         1 6AK      -0.316900
     17 O02         -0.4890     1.4940     0.1540 o          1 6AK      -0.599500
     18 N01          1.6080     1.9360    -0.5790 n          1 6AK      -0.385000
     19 N02          2.1040    -0.9040    -0.0330 na         1 6AK      -0.035400
     20 C15          3.8190     0.8510    -0.2740 c3         1 6AK      -0.111400
     21 N03          6.5220    -2.3920     0.0270 na         1 6AK       0.107400
     22 C16          7.7880    -1.8750    -0.4310 c3         1 6AK       0.044600
     23 C17          5.3750    -2.4820    -0.6740 cc         1 6AK      -0.062600
     24 C18          5.2560    -2.1400    -2.1150 c3         1 6AK      -0.032800
     25 C19          4.4260    -2.9590     0.2090 cd         1 6AK      -0.230300
     26 C20          5.1140    -3.1270     1.4290 cd         1 6AK       0.350600
     27 C21          4.5590    -3.6260     2.7160 c3         1 6AK      -0.121400
     28 N04          6.3770    -2.7700     1.3000 nc         1 6AK      -0.528800
     29 C22         -8.7260    -1.1120     0.5800 ca         1 6AK      -0.016600
     30 CL2        -10.4590    -0.9430     0.5500 cl         1 6AK      -0.138400
     31 C23         -8.1030    -1.4240     1.7900 ca         1 6AK      -0.026800
     32 C24         -8.8870    -1.6220     3.0520 c3         1 6AK      -0.046300
     33 C25         -6.7230    -1.5480     1.7960 ca         1 6AK      -0.192000
     34 C26         -5.9760    -1.3690     0.6320 ca         1 6AK       0.167100
     35 C27         -6.6270    -1.0650    -0.5580 ca         1 6AK      -0.192000
     36 C28         -8.0140    -0.9320    -0.5990 ca         1 6AK      -0.026800
     37 C29         -8.6920    -0.6000    -1.8940 c3         1 6AK      -0.046300
     38 C30          1.3320     6.0750     0.3080 ca         1 6AK      -0.121000
     39 C31          1.6330     5.1600     1.3030 ca         1 6AK      -0.115600
     40 C32          1.8880     5.6340     2.7300 c          1 6AK       0.926200
     41 O03          2.1840     4.7550     3.5630 o          1 6AK      -0.821800
     42 O04          1.7810     6.8570     2.9380 o          1 6AK      -0.821800
     43 C33          1.7150     3.7910     0.9900 ca         1 6AK      -0.096000
     44 C34          1.4910     3.3220    -0.2860 ca         1 6AK       0.024600
     45 C35          1.1800     4.2270    -1.3070 ca         1 6AK      -0.107800
     46 C36          1.1140     5.5990    -0.9820 ca         1 6AK      -0.057200
     47 N05          0.8070     6.2820    -2.1260 na         1 6AK      -0.063400
     48 C37          0.6540     7.7130    -2.2220 c3         1 6AK       0.043600
     49 C38          0.6790     5.3870    -3.1490 cc         1 6AK      -0.139100
     50 C39          0.8960     4.1140    -2.6990 cd         1 6AK      -0.196200
     51 H1           2.6270     0.4200     1.4690 h1         1 6AK       0.076700
     52 H2           3.8280    -0.7930     1.1360 h1         1 6AK       0.076700
     53 H3          -4.0050    -0.2790    -0.7860 h1         1 6AK       0.032700
     54 H4          -4.0560    -2.0050    -1.1720 h1         1 6AK       0.032700
     55 H5           2.5570     0.7580    -2.0230 h1         1 6AK       0.053200
     56 H6           3.2690     2.3280    -1.7520 h1         1 6AK       0.053200
     57 H7           1.0300    -5.9050    -0.9420 ha         1 6AK       0.139000
     58 H8          -0.6430    -4.1210    -1.2570 ha         1 6AK       0.134000
     59 H9          -1.6170    -0.2090    -1.5680 hc         1 6AK       0.046700
     60 H10         -1.6590    -1.9220    -1.9240 hc         1 6AK       0.046700
     61 H11         -2.1510    -0.6820     0.8230 hc         1 6AK       0.068700
     62 H12         -2.2100    -2.4090     0.4730 hc         1 6AK       0.068700
     63 H13          4.3090     1.6190     0.3290 hc         1 6AK       0.057200
     64 H14          4.5990     0.3500    -0.8510 hc         1 6AK       0.057200
     65 H15          7.8770    -0.8070    -0.2280 h1         1 6AK       0.053367
     66 H16          8.5930    -2.4000     0.0740 h1         1 6AK       0.053367
     67 H17          7.8870    -2.0360    -1.5020 h1         1 6AK       0.053367
     68 H18          5.8570    -2.8070    -2.7360 hc         1 6AK       0.052367
     69 H19          4.2190    -2.2340    -2.4330 hc         1 6AK       0.052367
     70 H20          5.5790    -1.1200    -2.3250 hc         1 6AK       0.052367
     71 H21          4.2340    -4.6640     2.6280 hc         1 6AK       0.050033
     72 H22          5.3010    -3.5700     3.5110 hc         1 6AK       0.050033
     73 H23          3.6880    -3.0440     3.0230 hc         1 6AK       0.050033
     74 H24         -9.6370    -2.4050     2.9360 hc         1 6AK       0.046533
     75 H25         -8.2320    -1.9000     3.8760 hc         1 6AK       0.046533
     76 H26         -9.4180    -0.7130     3.3370 hc         1 6AK       0.046533
     77 H27         -6.2120    -1.7900     2.7200 ha         1 6AK       0.144500
     78 H28         -6.0740    -0.9250    -1.4780 ha         1 6AK       0.144500
     79 H29         -9.2170     0.3550    -1.8360 hc         1 6AK       0.046533
     80 H30         -7.9670    -0.5340    -2.7030 hc         1 6AK       0.046533
     81 H31         -9.4310    -1.3550    -2.1660 hc         1 6AK       0.046533
     82 H32          1.2740     7.1310     0.5400 ha         1 6AK       0.153000
     83 H34          1.9620     3.0890     1.7770 ha         1 6AK       0.152000
     84 H35          1.5810     8.2240    -1.9630 h1         1 6AK       0.040700
     85 H36          0.3860     7.9760    -3.2410 h1         1 6AK       0.040700
     86 H37         -0.1340     8.0660    -1.5570 h1         1 6AK       0.040700
     87 H38          0.4350     5.7290    -4.1420 h4         1 6AK       0.140000
     88 H39          0.8500     3.2160    -3.2930 ha         1 6AK       0.138000
@<TRIPOS>BOND
     1     1    19 1   
     2     1    20 1   
     3     1    51 1   
     4     1    52 1   
     5     2     4 1   
     6     2    13 2   
     7     2    19 1   
     8     3    15 1   
     9     3    16 1   
    10     3    53 1   
    11     3    54 1   
    12     4    17 2   
    13     4    18 1   
    14     5    18 1   
    15     5    20 1   
    16     5    55 1   
    17     5    56 1   
    18     6     7 ar  
    19     6    12 ar  
    20     6    19 1   
    21     7     8 ar  
    22     7    25 1   
    23     8     9 1   
    24     8    10 ar  
    25    10    11 ar  
    26    10    57 1   
    27    11    12 ar  
    28    11    58 1   
    29    12    13 1   
    30    13    14 1   
    31    14    15 1   
    32    14    59 1   
    33    14    60 1   
    34    15    61 1   
    35    15    62 1   
    36    16    34 1   
    37    18    44 1   
    38    20    63 1   
    39    20    64 1   
    40    21    22 1   
    41    21    23 1   
    42    21    28 1   
    43    22    65 1   
    44    22    66 1   
    45    22    67 1   
    46    23    24 1   
    47    23    25 2   
    48    24    68 1   
    49    24    69 1   
    50    24    70 1   
    51    25    26 1   
    52    26    27 1   
    53    26    28 2   
    54    27    71 1   
    55    27    72 1   
    56    27    73 1   
    57    29    30 1   
    58    29    31 ar  
    59    29    36 ar  
    60    31    32 1   
    61    31    33 ar  
    62    32    74 1   
    63    32    75 1   
    64    32    76 1   
    65    33    34 ar  
    66    33    77 1   
    67    34    35 ar  
    68    35    36 ar  
    69    35    78 1   
    70    36    37 1   
    71    37    79 1   
    72    37    80 1   
    73    37    81 1   
    74    38    39 ar  
    75    38    46 ar  
    76    38    82 1   
    77    39    40 1   
    78    39    43 ar  
    79    40    41 1   
    80    40    42 1   
    81    43    44 ar  
    82    43    83 1   
    83    44    45 ar  
    84    45    46 ar  
    85    45    50 1   
    86    46    47 1   
    87    47    48 1   
    88    47    49 1   
    89    48    84 1   
    90    48    85 1   
    91    48    86 1   
    92    49    50 2   
    93    49    87 1   
    94    50    88 1   
@<TRIPOS>SUBSTRUCTURE
     1 6AK         1 TEMP              0 ****  ****    0 ROOT
