@<TRIPOS>MOLECULE
6AL
   74    78     1     0     0
SMALL
No Charge or Current Charge


@<TRIPOS>ATOM
      1 C13          2.5580    -6.3780    -0.7990 ca         1 6AL      -0.128000
      2 C15          0.1740    -6.3940    -0.2490 ca         1 6AL      -0.119600
      3 C21          0.7130     0.6190     0.9830 cc         1 6AL      -0.074400
      4 C22         -0.7060     0.8280     1.4600 c3         1 6AL      -0.007200
      5 C24         -3.1130     1.4220     0.7820 c3         1 6AL       0.162600
      6 C26         -5.2500     2.0310    -0.2900 ca         1 6AL       0.165100
      7 C28         -7.3400     2.2810     0.9560 ca         1 6AL      -0.026800
      8 C02          3.8770     3.3070     0.3470 ca         1 6AL       0.146000
      9 C03          2.6600     3.8680     0.7940 ca         1 6AL      -0.148000
     10 C04          1.5420     3.0490     1.0400 ca         1 6AL      -0.045000
     11 C05          1.6820     1.6700     0.8350 ca         1 6AL      -0.115800
     12 C06          2.8550     1.1200     0.4040 ca         1 6AL      -0.025200
     13 N07          2.6970    -0.2390     0.2070 na         1 6AL      -0.204700
     14 C08          1.3560    -0.5570     0.5680 cd         1 6AL      -0.118300
     15 C09          0.7140    -1.9150     0.4960 c          1 6AL       0.620300
     16 N10          1.6040    -2.8970     0.0700 ns         1 6AL      -0.142000
     17 C11          1.4630    -4.2960    -0.1560 ca         1 6AL      -0.086000
     18 C12          2.6130    -4.9980    -0.5550 ca         1 6AL      -0.179000
     19 C14          1.3490    -7.0730    -0.6470 ca         1 6AL      -0.094000
     20 C16         -1.1390    -7.1470    -0.0860 c          1 6AL       0.712600
     21 O17         -1.1560    -8.3500    -0.3070 o          1 6AL      -0.715000
     22 O18         -2.1340    -6.5250     0.2600 o          1 6AL      -0.715000
     23 C19          0.2450    -5.0000    -0.0070 ca         1 6AL      -0.079000
     24 O20         -0.4580    -2.1360     0.7760 o          1 6AL      -0.550100
     25 C23         -1.6660     1.1920     0.3080 c3         1 6AL      -0.079400
     26 O25         -3.9000     1.7600    -0.3720 os         1 6AL      -0.344100
     27 C27         -5.9600     1.9960     0.9280 ca         1 6AL      -0.174000
     28 C29         -8.0880     2.2370     2.2850 c3         1 6AL      -0.046800
     29 C30         -5.9240     2.3520    -1.4760 ca         1 6AL      -0.174000
     30 C31         -7.3020     2.6400    -1.4690 ca         1 6AL      -0.026800
     31 C32         -8.0040     2.9860    -2.7770 c3         1 6AL      -0.046800
     32 C33         -8.0100     2.6040    -0.2460 ca         1 6AL       0.076000
     33 Cl2         -9.7440     2.9640    -0.2210 cl         1 6AL      -0.228000
     34 C35          3.9960     1.9050     0.1380 ca         1 6AL      -0.001000
     35 C36          5.2490     1.2880    -0.3230 cc         1 6AL      -0.173000
     36 C37          5.7930     1.5890    -1.5420 cd         1 6AL      -0.105300
     37 C38          5.3710     2.5750    -2.6080 c3         1 6AL      -0.031800
     38 N39          6.8450     0.6730    -1.6900 na         1 6AL       0.130800
     39 C40          7.7760     0.5840    -2.8260 c3         1 6AL       0.071900
     40 N41          6.9220    -0.2330    -0.6420 nd         1 6AL      -0.524800
     41 C42          5.9350     0.1460     0.1420 cc         1 6AL       0.275300
     42 C43          5.6300    -0.5480     1.4410 c3         1 6AL      -0.124400
     43 H1           3.4550    -6.9110    -1.1060 ha         1 6AL       0.087000
     44 H2          -1.0770    -0.0530     1.9930 hc         1 6AL       0.059200
     45 H3          -0.7220     1.6370     2.2010 hc         1 6AL       0.059200
     46 H4          -3.4930     0.5080     1.2570 h1         1 6AL       0.036700
     47 H5          -3.1330     2.2370     1.5170 h1         1 6AL       0.036700
     48 H6           2.5890     4.9400     0.9600 ha         1 6AL       0.122000
     49 H7           0.6020     3.4800     1.3780 ha         1 6AL       0.118000
     50 H8           3.3960    -0.8660    -0.1760 hn         1 6AL       0.366000
     51 H9           2.5370    -2.5570    -0.1130 hn         1 6AL       0.132000
     52 H10          3.5590    -4.4740    -0.6760 ha         1 6AL       0.080000
     53 H11          1.3280    -8.1440    -0.8410 ha         1 6AL       0.131000
     54 H13         -0.6580    -4.4810     0.2960 ha         1 6AL       0.151000
     55 H14         -1.3030     2.0970    -0.1920 hc         1 6AL       0.059700
     56 H15         -1.6560     0.3860    -0.4350 hc         1 6AL       0.059700
     57 H16         -5.4560     1.7490     1.8580 ha         1 6AL       0.126500
     58 H17         -8.8940     1.4940     2.2590 hc         1 6AL       0.047033
     59 H18         -7.4270     1.9720     3.1190 hc         1 6AL       0.047033
     60 H19         -8.5340     3.2110     2.5180 hc         1 6AL       0.047033
     61 H20         -5.3660     2.3760    -2.4090 ha         1 6AL       0.126500
     62 H21         -8.8070     2.2710    -2.9940 hc         1 6AL       0.047033
     63 H22         -8.4460     3.9880    -2.7340 hc         1 6AL       0.047033
     64 H23         -7.3130     2.9690    -3.6280 hc         1 6AL       0.047033
     65 H24          6.0400     3.4440    -2.6280 hc         1 6AL       0.052700
     66 H25          5.3940     2.1150    -3.6030 hc         1 6AL       0.052700
     67 H26          4.3500     2.9380    -2.4450 hc         1 6AL       0.052700
     68 H27          8.1580     1.5830    -3.0650 h1         1 6AL       0.054700
     69 H28          8.6170    -0.0720    -2.5710 h1         1 6AL       0.054700
     70 H29          7.2490     0.1770    -3.6970 h1         1 6AL       0.054700
     71 H30          4.9890     0.0660     2.0850 hc         1 6AL       0.052033
     72 H31          5.1260    -1.5050     1.2660 hc         1 6AL       0.052033
     73 H32          6.5530    -0.7530     1.9960 hc         1 6AL       0.052033
     74 Cl           5.2610     4.3900     0.1660 cl         1 6AL      -0.219000
@<TRIPOS>BOND
     1     1    18 ar  
     2     1    19 ar  
     3     1    43 1   
     4     2    19 ar  
     5     2    20 1   
     6     2    23 ar  
     7     3     4 1   
     8     3    11 1   
     9     3    14 2   
    10     4    25 1   
    11     4    44 1   
    12     4    45 1   
    13     5    25 1   
    14     5    26 1   
    15     5    46 1   
    16     5    47 1   
    17     6    26 1   
    18     6    27 ar  
    19     6    29 ar  
    20     7    27 ar  
    21     7    28 1   
    22     7    32 ar  
    23     8     9 ar  
    24     8    34 ar  
    25     8    74 1   
    26     9    10 ar  
    27     9    48 1   
    28    10    11 ar  
    29    10    49 1   
    30    11    12 ar  
    31    12    13 1   
    32    12    34 ar  
    33    13    14 1   
    34    13    50 1   
    35    14    15 1   
    36    15    16 1   
    37    15    24 2   
    38    16    17 1   
    39    16    51 1   
    40    17    18 ar  
    41    17    23 ar  
    42    18    52 1   
    43    19    53 1   
    44    20    21 1   
    45    20    22 1   
    46    23    54 1   
    47    25    55 1   
    48    25    56 1   
    49    27    57 1   
    50    28    58 1   
    51    28    59 1   
    52    28    60 1   
    53    29    30 ar  
    54    29    61 1   
    55    30    31 1   
    56    30    32 ar  
    57    31    62 1   
    58    31    63 1   
    59    31    64 1   
    60    32    33 1   
    61    34    35 1   
    62    35    36 2   
    63    35    41 1   
    64    36    37 1   
    65    36    38 1   
    66    37    65 1   
    67    37    66 1   
    68    37    67 1   
    69    38    39 1   
    70    38    40 1   
    71    39    68 1   
    72    39    69 1   
    73    39    70 1   
    74    40    41 2   
    75    41    42 1   
    76    42    71 1   
    77    42    72 1   
    78    42    73 1   
@<TRIPOS>SUBSTRUCTURE
     1 6AL         1 TEMP              0 ****  ****    0 ROOT
