@<TRIPOS>MOLECULE
6AL
   74    78     1     0     0
SMALL
abcg2


@<TRIPOS>ATOM
      1 C13          1.0000    -5.7430    -2.2670 ca         1 6AL      -0.128000
      2 C15          0.4060    -6.2030     0.0220 ca         1 6AL      -0.119600
      3 C21          0.6640     0.6730     1.0490 cc         1 6AL      -0.074400
      4 C22         -0.7660     0.8610     1.4360 c3         1 6AL      -0.007200
      5 C24         -3.0950     1.3300     0.6320 c3         1 6AL       0.162600
      6 C26         -5.1800     1.8130    -0.4140 ca         1 6AL       0.165100
      7 C28         -7.2080     2.2130     0.8450 ca         1 6AL      -0.026800
      8 C02          3.8830     3.2530     0.4890 ca         1 6AL       0.146000
      9 C03          2.6940     3.8630     0.9280 ca         1 6AL      -0.148000
     10 C04          1.5650     3.1090     1.1510 ca         1 6AL      -0.045000
     11 C05          1.6180     1.7280     0.9240 ca         1 6AL      -0.115800
     12 C06          2.8210     1.1610     0.4640 ca         1 6AL      -0.025200
     13 N07          2.6060    -0.1660     0.2830 na         1 6AL      -0.204700
     14 C08          1.3090    -0.4710     0.6420 cd         1 6AL      -0.118300
     15 C09          0.7600    -1.8350     0.5340 c          1 6AL       0.620300
     16 N10          1.4110    -2.6410    -0.3470 ns         1 6AL      -0.142000
     17 C11          1.0960    -3.9810    -0.6330 ca         1 6AL      -0.086000
     18 C12          1.2600    -4.4200    -1.9450 ca         1 6AL      -0.179000
     19 C14          0.5670    -6.6310    -1.2930 ca         1 6AL      -0.094000
     20 C16         -0.0540    -7.1730     1.1070 c          1 6AL       0.712600
     21 O17         -0.2940    -8.3400     0.7450 o          1 6AL      -0.715000
     22 O18         -0.1510    -6.7140     2.2610 o          1 6AL      -0.715000
     23 C19          0.6790    -4.8780     0.3470 ca         1 6AL      -0.079000
     24 O20         -0.2050    -2.1880     1.1900 o          1 6AL      -0.550100
     25 C23         -1.6640     1.0670     0.2130 c3         1 6AL      -0.079400
     26 O25         -3.8690     1.5320    -0.5390 os         1 6AL      -0.344100
     27 C27         -5.8460     1.9140     0.8020 ca         1 6AL      -0.174000
     28 C29         -7.9070     2.3220     2.1660 c3         1 6AL      -0.046800
     29 C30         -5.8830     2.0100    -1.6010 ca         1 6AL      -0.174000
     30 C31         -7.2370     2.3090    -1.5940 ca         1 6AL      -0.026800
     31 C32         -7.9700     2.5220    -2.8840 c3         1 6AL      -0.046800
     32 C33         -7.8770     2.4050    -0.3570 ca         1 6AL       0.076000
     33 CL2         -9.5760     2.7840    -0.3210 cl         1 6AL      -0.228000
     34 C35          3.9960     1.8950     0.2450 ca         1 6AL      -0.001000
     35 C36          5.2200     1.2290    -0.1980 cc         1 6AL      -0.173000
     36 C37          5.8720     1.3710    -1.4090 cd         1 6AL      -0.105300
     37 C38          5.5540     2.2200    -2.5850 c3         1 6AL      -0.031800
     38 N39          6.9400     0.5550    -1.3520 na         1 6AL       0.130800
     39 C40          7.9720     0.4080    -2.3490 c3         1 6AL       0.071900
     40 N41          7.0320    -0.0960    -0.1900 nd         1 6AL      -0.524800
     41 C42          5.9920     0.2920     0.5230 cc         1 6AL       0.275300
     42 C43          5.7420    -0.2260     1.8990 c3         1 6AL      -0.124400
     43 H1           1.1310    -6.0760    -3.2890 ha         1 6AL       0.087000
     44 H2          -1.1220     0.0100     2.0140 hc         1 6AL       0.059200
     45 H3          -0.8410     1.7340     2.0900 hc         1 6AL       0.059200
     46 H4          -3.4850     0.4800     1.2040 h1         1 6AL       0.036700
     47 H5          -3.1440     2.2140     1.2790 h1         1 6AL       0.036700
     48 H6           2.6770     4.9310     1.0970 ha         1 6AL       0.122000
     49 H7           0.6570     3.5850     1.4980 ha         1 6AL       0.118000
     50 H8           3.3270    -0.8320     0.0580 hn         1 6AL       0.366000
     51 H9           2.0180    -2.1960    -1.0180 hn         1 6AL       0.132000
     52 H10          1.5870    -3.7270    -2.7110 ha         1 6AL       0.080000
     53 H11          0.3550    -7.6600    -1.5500 ha         1 6AL       0.131000
     54 H13          0.5760    -4.5630     1.3740 ha         1 6AL       0.151000
     55 H14         -1.2920     1.9100    -0.3750 hc         1 6AL       0.059700
     56 H15         -1.6190     0.1810    -0.4250 hc         1 6AL       0.059700
     57 H16         -5.3280     1.7650     1.7400 ha         1 6AL       0.126500
     58 H17         -8.7270     1.6070     2.2450 hc         1 6AL       0.047033
     59 H18         -7.2160     2.1330     2.9860 hc         1 6AL       0.047033
     60 H19         -8.3340     3.3150     2.3100 hc         1 6AL       0.047033
     61 H20         -5.3600     1.9260    -2.5460 ha         1 6AL       0.126500
     62 H21         -8.7830     1.8040    -3.0040 hc         1 6AL       0.047033
     63 H22         -8.4130     3.5170    -2.9300 hc         1 6AL       0.047033
     64 H23         -7.2970     2.4130    -3.7320 hc         1 6AL       0.047033
     65 H24          6.2880     3.0160    -2.7160 hc         1 6AL       0.052700
     66 H25          5.5260     1.6390    -3.5070 hc         1 6AL       0.052700
     67 H26          4.5780     2.6850    -2.4590 hc         1 6AL       0.052700
     68 H27          8.6950     1.2220    -2.2920 h1         1 6AL       0.054700
     69 H28          8.4840    -0.5350    -2.1840 h1         1 6AL       0.054700
     70 H29          7.5360     0.3970    -3.3450 h1         1 6AL       0.054700
     71 H30          5.3460     0.5590     2.5430 hc         1 6AL       0.052033
     72 H31          5.0170    -1.0430     1.9050 hc         1 6AL       0.052033
     73 H32          6.6600    -0.6040     2.3460 hc         1 6AL       0.052033
     74 CL           5.2700     4.2700     0.2650 cl         1 6AL      -0.219000
@<TRIPOS>BOND
     1     1    18 ar  
     2     1    19 ar  
     3     1    43 1   
     4     2    19 ar  
     5     2    20 1   
     6     2    23 ar  
     7     3     4 1   
     8     3    11 1   
     9     3    14 2   
    10     4    25 1   
    11     4    44 1   
    12     4    45 1   
    13     5    25 1   
    14     5    26 1   
    15     5    46 1   
    16     5    47 1   
    17     6    26 1   
    18     6    27 ar  
    19     6    29 ar  
    20     7    27 ar  
    21     7    28 1   
    22     7    32 ar  
    23     8     9 ar  
    24     8    34 ar  
    25     8    74 1   
    26     9    10 ar  
    27     9    48 1   
    28    10    11 ar  
    29    10    49 1   
    30    11    12 ar  
    31    12    13 1   
    32    12    34 ar  
    33    13    14 1   
    34    13    50 1   
    35    14    15 1   
    36    15    16 1   
    37    15    24 2   
    38    16    17 1   
    39    16    51 1   
    40    17    18 ar  
    41    17    23 ar  
    42    18    52 1   
    43    19    53 1   
    44    20    21 1   
    45    20    22 1   
    46    23    54 1   
    47    25    55 1   
    48    25    56 1   
    49    27    57 1   
    50    28    58 1   
    51    28    59 1   
    52    28    60 1   
    53    29    30 ar  
    54    29    61 1   
    55    30    31 1   
    56    30    32 ar  
    57    31    62 1   
    58    31    63 1   
    59    31    64 1   
    60    32    33 1   
    61    34    35 1   
    62    35    36 2   
    63    35    41 1   
    64    36    37 1   
    65    36    38 1   
    66    37    65 1   
    67    37    66 1   
    68    37    67 1   
    69    38    39 1   
    70    38    40 1   
    71    39    68 1   
    72    39    69 1   
    73    39    70 1   
    74    40    41 2   
    75    41    42 1   
    76    42    71 1   
    77    42    72 1   
    78    42    73 1   
@<TRIPOS>SUBSTRUCTURE
     1 6AL         1 TEMP              0 ****  ****    0 ROOT
