@<TRIPOS>MOLECULE
6AM
   14    14     1     0     0
SMALL
abcg2


@<TRIPOS>ATOM
      1 OAC         32.2520    39.1900    27.1380 oh         1 6AM      -0.620300
      2 CAI         32.9330    38.0400    27.0350 ca         1 6AM       0.424300
      3 NAF         34.1140    38.0310    27.6310 nb         1 6AM      -0.364000
      4 NAE         32.3620    37.0510    26.3600 nb         1 6AM      -0.364000
      5 CAG         33.1090    35.9280    26.2980 ca         1 6AM       0.455900
      6 NAA         32.5950    34.8860    25.6290 nv         1 6AM      -1.069900
      7 NAD         34.3180    35.7810    26.8570 nb         1 6AM      -0.375000
      8 CAH         34.7740    36.8580    27.5110 ca         1 6AM       0.455900
      9 NAB         35.9770    36.7720    28.0950 nv         1 6AM      -1.069900
     10 H1          31.6970    34.9670    25.1840 hn         1 6AM       0.509500
     11 H2          33.1200    34.0330    25.5440 hn         1 6AM       0.509500
     12 H4          36.5140    35.9250    28.0200 hn         1 6AM       0.509500
     13 H5          36.3590    37.5650    28.5810 hn         1 6AM       0.509500
     14 H3          31.4080    39.0840    26.6700 ho         1 6AM       0.489000
@<TRIPOS>BOND
     1     1     2 1   
     2     1    14 1   
     3     2     3 ar  
     4     2     4 ar  
     5     3     8 ar  
     6     4     5 ar  
     7     5     6 1   
     8     5     7 ar  
     9     6    10 1   
    10     6    11 1   
    11     7     8 ar  
    12     8     9 1   
    13     9    12 1   
    14     9    13 1   
@<TRIPOS>SUBSTRUCTURE
     1 6AM         1 TEMP              0 ****  ****    0 ROOT
