@<TRIPOS>MOLECULE
6AM
   14    14     1     0     0
SMALL
No Charge or Current Charge


@<TRIPOS>ATOM
      1 OAC         32.2390    39.2170    27.0990 oh         1 6AM      -0.620300
      2 CAI         32.9250    38.0550    27.0540 ca         1 6AM       0.424300
      3 NAF         34.1180    38.0120    27.6700 nb         1 6AM      -0.364000
      4 NAE         32.3520    37.0390    26.3900 nb         1 6AM      -0.364000
      5 CAG         33.0810    35.9200    26.3840 ca         1 6AM       0.455900
      6 NAA         32.5600    34.8650    25.7310 nv         1 6AM      -1.069900
      7 NAD         34.2760    35.7410    26.9510 nb         1 6AM      -0.375000
      8 CAH         34.7290    36.8280    27.5780 ca         1 6AM       0.455900
      9 NAB         35.9310    36.7220    28.1740 nv         1 6AM      -1.069900
     10 H1          31.7940    35.0420    25.0850 hn         1 6AM       0.509500
     11 H2          33.1830    34.0980    25.4930 hn         1 6AM       0.509500
     12 H4          36.5200    35.9370    27.9090 hn         1 6AM       0.509500
     13 H5          36.4130    37.5800    28.4320 hn         1 6AM       0.509500
     14 H3          31.4090    39.0540    26.6030 ho         1 6AM       0.489000
@<TRIPOS>BOND
     1     1     2 1   
     2     1    14 1   
     3     2     3 ar  
     4     2     4 ar  
     5     3     8 ar  
     6     4     5 ar  
     7     5     6 1   
     8     5     7 ar  
     9     6    10 1   
    10     6    11 1   
    11     7     8 ar  
    12     8     9 1   
    13     9    12 1   
    14     9    13 1   
@<TRIPOS>SUBSTRUCTURE
     1 6AM         1 TEMP              0 ****  ****    0 ROOT
