@<TRIPOS>MOLECULE
6AN
   33    35     1     0     0
SMALL
No Charge or Current Charge


@<TRIPOS>ATOM
      1 C7           1.1310    -1.1330    -0.2430 ca         1 6AN      -0.101000
      2 C8          -0.2110    -0.7140    -0.1720 ca         1 6AN      -0.010000
      3 C16         -1.0860    -0.9470    -1.2480 ca         1 6AN      -0.152000
      4 C15         -2.4260    -0.5280    -1.1750 ca         1 6AN      -0.005000
      5 C14         -2.9050     0.1340    -0.0260 ca         1 6AN      -0.219500
      6 S           -4.6730     0.6740     0.0730 s6         1 6AN       1.260100
      7 O3          -5.3060    -0.5250     0.6420 o          1 6AN      -0.691533
      8 O1          -4.5950     1.8390     0.9680 o          1 6AN      -0.691533
      9 O2          -4.9930     0.9550    -1.3350 o          1 6AN      -0.691533
     10 C13         -2.0270     0.3600     1.0560 ca         1 6AN      -0.016000
     11 C12         -0.6840    -0.0590     0.9850 ca         1 6AN      -0.065000
     12 C11          0.1910     0.1700     2.0650 ca         1 6AN      -0.075000
     13 C10          1.5300    -0.2500     1.9870 ca         1 6AN      -0.153000
     14 C9           2.0040    -0.8990     0.8340 ca         1 6AN       0.111400
     15 N            3.3440    -1.3120     0.7640 ne         1 6AN      -0.558100
     16 C6           4.2410    -0.5870     0.1670 cf         1 6AN       0.509900
     17 C1           4.8700     0.5430     0.8320 cf         1 6AN      -0.280600
     18 C2           5.7590     1.3590     0.2120 c2         1 6AN      -0.201700
     19 C3           6.1720     1.1580    -1.2430 c6         1 6AN      -0.021000
     20 C4           5.4650    -0.0240    -1.9010 c2         1 6AN      -0.201700
     21 C5           4.5840    -0.8060    -1.2290 cf         1 6AN      -0.280600
     22 H7           1.4950    -1.6390    -1.1330 ha         1 6AN       0.112000
     23 H16         -0.7310    -1.4550    -2.1420 ha         1 6AN       0.097000
     24 H15         -3.0900    -0.7220    -2.0150 ha         1 6AN       0.126000
     25 H13         -2.3870     0.8600     1.9540 ha         1 6AN       0.135000
     26 H11         -0.1640     0.6730     2.9620 ha         1 6AN       0.111000
     27 H10          2.2000    -0.0710     2.8240 ha         1 6AN       0.104000
     28 H1           4.5940     0.7150     1.8720 ha         1 6AN       0.197500
     29 H5           4.0960    -1.6430    -1.7280 ha         1 6AN       0.197500
     30 H2           6.2100     2.1980     0.7470 ha         1 6AN       0.172000
     31 H31C         5.9570     2.0730    -1.8120 hc         1 6AN       0.055700
     32 H32C         7.2590     1.0080    -1.2960 hc         1 6AN       0.055700
     33 H4           5.6970    -0.2230    -2.9500 ha         1 6AN       0.172000
@<TRIPOS>BOND
     1     1     2 ar  
     2     1    14 ar  
     3     1    22 1   
     4     2     3 ar  
     5     2    11 ar  
     6     3     4 ar  
     7     3    23 1   
     8     4     5 ar  
     9     4    24 1   
    10     5     6 1   
    11     5    10 ar  
    12     6     7 1   
    13     6     8 1   
    14     6     9 1   
    15    10    11 ar  
    16    10    25 1   
    17    11    12 ar  
    18    12    13 ar  
    19    12    26 1   
    20    13    14 ar  
    21    13    27 1   
    22    14    15 1   
    23    15    16 2   
    24    16    17 1   
    25    16    21 1   
    26    17    18 2   
    27    17    28 1   
    28    18    19 1   
    29    18    30 1   
    30    19    20 1   
    31    19    31 1   
    32    19    32 1   
    33    20    21 2   
    34    20    33 1   
    35    21    29 1   
@<TRIPOS>SUBSTRUCTURE
     1 6AN         1 TEMP              0 ****  ****    0 ROOT
