@<TRIPOS>MOLECULE
6AN
   33    35     1     0     0
SMALL
bcc


@<TRIPOS>ATOM
      1 C7           1.0010    -1.3320     0.0790 ca         1 6AN      -0.119000
      2 C8          -0.3580    -0.9650     0.0100 ca         1 6AN      -0.010000
      3 C16         -1.3230    -1.7860    -0.6270 ca         1 6AN      -0.170000
      4 C15         -2.6360    -1.4150    -0.6770 ca         1 6AN      -0.023000
      5 C14         -3.0550    -0.1990    -0.0880 ca         1 6AN      -0.219500
      6 S           -4.7850     0.2340    -0.1900 s6         1 6AN       1.260100
      7 O3          -5.4930    -0.9030     0.4250 o          1 6AN      -0.691533
      8 O1          -4.9400     1.4940     0.5570 o          1 6AN      -0.691533
      9 O2          -5.0550     0.3700    -1.6320 o          1 6AN      -0.691533
     10 C13         -2.1510     0.6150     0.5340 ca         1 6AN      -0.034000
     11 C12         -0.7850     0.2530     0.5960 ca         1 6AN      -0.065000
     12 C11          0.1770     1.0680     1.2340 ca         1 6AN      -0.093000
     13 C10          1.4930     0.7010     1.2780 ca         1 6AN      -0.171000
     14 C9           1.9270    -0.5150     0.6860 ca         1 6AN       0.111400
     15 N            3.2520    -0.9270     0.7950 ne         1 6AN      -0.558100
     16 C6           4.2130    -0.2750     0.2490 cf         1 6AN       0.509900
     17 C1           5.5760    -0.7450     0.4890 cf         1 6AN      -0.230600
     18 C2           6.6400    -0.1210    -0.0200 c2         1 6AN      -0.151700
     19 C3           6.5320     1.0860    -0.8790 c6         1 6AN      -0.021000
     20 C4           5.1330     1.5100    -1.1400 c2         1 6AN      -0.151700
     21 C5           4.0680     0.8920    -0.6230 cf         1 6AN      -0.230600
     22 H7           1.3200    -2.2710    -0.3580 ha         1 6AN       0.130000
     23 H16         -1.0060    -2.7200    -1.0750 ha         1 6AN       0.115000
     24 H15         -3.3560    -2.0580    -1.1680 ha         1 6AN       0.144000
     25 H13         -2.4670     1.5460     0.9870 ha         1 6AN       0.153000
     26 H11         -0.1390     1.9980     1.6900 ha         1 6AN       0.129000
     27 H10          2.2150     1.3320     1.7810 ha         1 6AN       0.122000
     28 H1           5.6870    -1.6250     1.1110 ha         1 6AN       0.147500
     29 H5           3.0730     1.2440    -0.8610 ha         1 6AN       0.147500
     30 H2           7.6350    -0.4940     0.1880 ha         1 6AN       0.122000
     31 H31C         7.0920     1.9150    -0.4290 hc         1 6AN       0.055700
     32 H32C         7.0460     0.9110    -1.8320 hc         1 6AN       0.055700
     33 H4           4.9920     2.3660    -1.7900 ha         1 6AN       0.122000
@<TRIPOS>BOND
     1     1     2 ar  
     2     1    14 ar  
     3     1    22 1   
     4     2     3 ar  
     5     2    11 ar  
     6     3     4 ar  
     7     3    23 1   
     8     4     5 ar  
     9     4    24 1   
    10     5     6 1   
    11     5    10 ar  
    12     6     7 1   
    13     6     8 1   
    14     6     9 1   
    15    10    11 ar  
    16    10    25 1   
    17    11    12 ar  
    18    12    13 ar  
    19    12    26 1   
    20    13    14 ar  
    21    13    27 1   
    22    14    15 1   
    23    15    16 2   
    24    16    17 1   
    25    16    21 1   
    26    17    18 2   
    27    17    28 1   
    28    18    19 1   
    29    18    30 1   
    30    19    20 1   
    31    19    31 1   
    32    19    32 1   
    33    20    21 2   
    34    20    33 1   
    35    21    29 1   
@<TRIPOS>SUBSTRUCTURE
     1 6AN         1 TEMP              0 ****  ****    0 ROOT
