@<TRIPOS>MOLECULE
6AO
   46    47     1     0     0
SMALL
abcg2


@<TRIPOS>ATOM
      1 C1           3.1540    -1.8890    -0.2470 c3         1 6AO       0.086500
      2 N2           2.7070    -2.8440    -1.2420 n8         1 6AO      -0.984200
      3 C3           2.7440    -0.4920    -0.6890 c          1 6AO       0.616100
      4 O4           2.7810    -0.1560    -1.8640 o          1 6AO      -0.602100
      5 N5           2.3740     0.3350     0.3040 ns         1 6AO      -0.476900
      6 C6           1.1390     2.3050     1.0700 c3         1 6AO      -0.036100
      7 C7           2.2130     1.7510     0.1220 c3         1 6AO       0.053400
      8 C8          -0.2050     1.6840     0.8230 ca         1 6AO      -0.075300
      9 C9          -0.7120     0.7010     1.6640 ca         1 6AO      -0.101500
     10 C10         -1.9450     0.1150     1.4180 ca         1 6AO      -0.095500
     11 C11         -2.7100     0.4920     0.3150 cp         1 6AO      -0.029000
     12 C12         -2.1970     1.4760    -0.5330 ca         1 6AO      -0.095500
     13 C13         -0.9670     2.0610    -0.2810 ca         1 6AO      -0.101500
     14 C14         -4.0270    -0.1240     0.0520 cp         1 6AO      -0.035000
     15 C15         -4.4490    -0.3810    -1.2540 ca         1 6AO      -0.098500
     16 C16         -5.6880    -0.9560    -1.5000 ca         1 6AO      -0.111500
     17 C17         -6.5280    -1.2870    -0.4460 ca         1 6AO      -0.107000
     18 C18         -6.1200    -1.0360     0.8580 ca         1 6AO      -0.111500
     19 C19         -4.8820    -0.4610     1.1040 ca         1 6AO      -0.098500
     20 C20          4.6690    -1.8730     0.0260 c3         1 6AO      -0.120400
     21 C21          5.1870    -3.2020     0.5560 c3         1 6AO      -0.091100
     22 C22          3.5030     2.5070     0.3080 c2         1 6AO       0.397200
     23 N23          4.5770     1.9350     0.6380 n2         1 6AO      -0.745100
     24 H22          3.4160     3.5830     0.1340 h4         1 6AO      -0.035200
     25 H1           2.6460    -2.1300     0.6930 h1         1 6AO       0.062700
     26 H21N         3.1700    -2.6590    -2.1240 hn         1 6AO       0.405000
     27 H22N         2.9840    -3.7770    -0.9660 hn         1 6AO       0.405000
     28 H201         5.1920    -1.6070    -0.8970 hc         1 6AO       0.058700
     29 H202         4.8930    -1.0790     0.7440 hc         1 6AO       0.058700
     30 H5           2.4810     0.0070     1.2520 hn         1 6AO       0.311500
     31 H7           1.8790     1.9270    -0.9040 h1         1 6AO       0.098700
     32 H61C         1.4490     2.1420     2.1060 hc         1 6AO       0.052700
     33 H62C         1.0840     3.3880     0.9290 hc         1 6AO       0.052700
     34 H9          -0.1380     0.3830     2.5270 ha         1 6AO       0.109000
     35 H13         -0.5980     2.8290    -0.9510 ha         1 6AO       0.109000
     36 H10         -2.3040    -0.6580     2.0850 ha         1 6AO       0.115500
     37 H12         -2.7750     1.8090    -1.3860 ha         1 6AO       0.115500
     38 H15         -3.7970    -0.1470    -2.0870 ha         1 6AO       0.114500
     39 H19         -4.5870    -0.2520     2.1250 ha         1 6AO       0.114500
     40 H16         -5.9940    -1.1510    -2.5200 ha         1 6AO       0.112500
     41 H17         -7.4930    -1.7370    -0.6390 ha         1 6AO       0.112000
     42 H18         -6.7700    -1.2810     1.6880 ha         1 6AO       0.112500
     43 H211         4.6630    -3.4950     1.4680 hc         1 6AO       0.033700
     44 H212         5.0680    -4.0060    -0.1710 hc         1 6AO       0.033700
     45 H213         6.2490    -3.1390     0.7920 hc         1 6AO       0.033700
     46 H23          5.3300     2.6130     0.7120 hn         1 6AO       0.378400
@<TRIPOS>BOND
     1     1     2 1   
     2     1     3 1   
     3     1    20 1   
     4     1    25 1   
     5     2    26 1   
     6     2    27 1   
     7     3     4 2   
     8     3     5 1   
     9     5     7 1   
    10     5    30 1   
    11     6     7 1   
    12     6     8 1   
    13     6    32 1   
    14     6    33 1   
    15     7    22 1   
    16     7    31 1   
    17     8     9 ar  
    18     8    13 ar  
    19     9    10 ar  
    20     9    34 1   
    21    10    11 ar  
    22    10    36 1   
    23    11    12 ar  
    24    11    14 1   
    25    12    13 ar  
    26    12    37 1   
    27    13    35 1   
    28    14    15 ar  
    29    14    19 ar  
    30    15    16 ar  
    31    15    38 1   
    32    16    17 ar  
    33    16    40 1   
    34    17    18 ar  
    35    17    41 1   
    36    18    19 ar  
    37    18    42 1   
    38    19    39 1   
    39    20    21 1   
    40    20    28 1   
    41    20    29 1   
    42    21    43 1   
    43    21    44 1   
    44    21    45 1   
    45    22    23 2   
    46    22    24 1   
    47    23    46 1   
@<TRIPOS>SUBSTRUCTURE
     1 6AO         1 TEMP              0 ****  ****    0 ROOT
