@<TRIPOS>MOLECULE
6AO
   46    47     1     0     0
SMALL
No Charge or Current Charge


@<TRIPOS>ATOM
      1 C1           3.1470    -1.7450    -0.4070 c3         1 6AO       0.086500
      2 N2           2.5190    -2.6310    -1.4430 n8         1 6AO      -0.984200
      3 C3           3.0920    -0.2010    -0.7170 c          1 6AO       0.616100
      4 O4           3.5670     0.2930    -1.7350 o          1 6AO      -0.602100
      5 N5           2.4520     0.5700     0.2300 ns         1 6AO      -0.476900
      6 C6           1.1520     2.5220     1.0780 c3         1 6AO      -0.036100
      7 C7           2.2870     2.0350     0.1450 c3         1 6AO       0.053400
      8 C8          -0.1740     1.8090     0.8280 ca         1 6AO      -0.075300
      9 C9          -0.6910     0.9090     1.7780 ca         1 6AO      -0.101500
     10 C10         -1.9100     0.2500     1.5410 ca         1 6AO      -0.095500
     11 C11         -2.6470     0.4730     0.3510 cp         1 6AO      -0.029000
     12 C12         -2.1110     1.3840    -0.5930 ca         1 6AO      -0.095500
     13 C13         -0.8930     2.0440    -0.3570 ca         1 6AO      -0.101500
     14 C14         -3.9460    -0.2300     0.0990 cp         1 6AO      -0.035000
     15 C15         -4.3240    -0.6260    -1.2100 ca         1 6AO      -0.098500
     16 C16         -5.5430    -1.2860    -1.4460 ca         1 6AO      -0.111500
     17 C17         -6.4110    -1.5630    -0.3790 ca         1 6AO      -0.107000
     18 C18         -6.0590    -1.1810     0.9260 ca         1 6AO      -0.111500
     19 C19         -4.8400    -0.5220     1.1610 ca         1 6AO      -0.098500
     20 C20          4.6030    -2.2010    -0.1310 c3         1 6AO      -0.120400
     21 C21          4.7300    -3.6240     0.4590 c3         1 6AO      -0.091100
     22 C22          3.6010     2.7740     0.3960 c2         1 6AO       0.397200
     23 N23          4.3310     2.6050     1.4450 n2         1 6AO      -0.745100
     24 H22          3.9170     3.4800    -0.3670 h4         1 6AO      -0.035200
     25 H1           2.5800    -1.8910     0.5240 h1         1 6AO       0.062700
     26 H21N         3.0050    -2.4920    -2.3390 hn         1 6AO       0.405000
     27 H22N         2.7170    -3.6110    -1.2110 hn         1 6AO       0.405000
     28 H201         5.1940    -2.1340    -1.0540 hc         1 6AO       0.058700
     29 H202         5.0590    -1.4980     0.5780 hc         1 6AO       0.058700
     30 H5           2.0760     0.0880     1.0380 hn         1 6AO       0.311500
     31 H7           1.9830     2.2690    -0.8840 h1         1 6AO       0.098700
     32 H61C         1.4640     2.3890     2.1220 hc         1 6AO       0.052700
     33 H62C         1.0190     3.6030     0.9400 hc         1 6AO       0.052700
     34 H9          -0.1490     0.7130     2.7000 ha         1 6AO       0.109000
     35 H13         -0.5100     2.7420    -1.0990 ha         1 6AO       0.109000
     36 H10         -2.2800    -0.4510     2.2850 ha         1 6AO       0.115500
     37 H12         -2.6520     1.5950    -1.5120 ha         1 6AO       0.115500
     38 H15         -3.6610    -0.4330    -2.0490 ha         1 6AO       0.114500
     39 H19         -4.5930    -0.2230     2.1770 ha         1 6AO       0.114500
     40 H16         -5.8120    -1.5840    -2.4570 ha         1 6AO       0.112500
     41 H17         -7.3550    -2.0740    -0.5610 ha         1 6AO       0.112000
     42 H18         -6.7320    -1.3920     1.7540 ha         1 6AO       0.112500
     43 H211         4.1470    -3.7150     1.3830 hc         1 6AO       0.033700
     44 H212         4.3800    -4.3830    -0.2500 hc         1 6AO       0.033700
     45 H213         5.7780    -3.8440     0.6960 hc         1 6AO       0.033700
     46 H23          5.1600     3.2140     1.3790 hn         1 6AO       0.378400
@<TRIPOS>BOND
     1     1     2 1   
     2     1     3 1   
     3     1    20 1   
     4     1    25 1   
     5     2    26 1   
     6     2    27 1   
     7     3     4 2   
     8     3     5 1   
     9     5     7 1   
    10     5    30 1   
    11     6     7 1   
    12     6     8 1   
    13     6    32 1   
    14     6    33 1   
    15     7    22 1   
    16     7    31 1   
    17     8     9 ar  
    18     8    13 ar  
    19     9    10 ar  
    20     9    34 1   
    21    10    11 ar  
    22    10    36 1   
    23    11    12 ar  
    24    11    14 1   
    25    12    13 ar  
    26    12    37 1   
    27    13    35 1   
    28    14    15 ar  
    29    14    19 ar  
    30    15    16 ar  
    31    15    38 1   
    32    16    17 ar  
    33    16    40 1   
    34    17    18 ar  
    35    17    41 1   
    36    18    19 ar  
    37    18    42 1   
    38    19    39 1   
    39    20    21 1   
    40    20    28 1   
    41    20    29 1   
    42    21    43 1   
    43    21    44 1   
    44    21    45 1   
    45    22    23 2   
    46    22    24 1   
    47    23    46 1   
@<TRIPOS>SUBSTRUCTURE
     1 6AO         1 TEMP              0 ****  ****    0 ROOT
