@<TRIPOS>MOLECULE
6AP
   17    18     1     0     0
SMALL
abcg2


@<TRIPOS>ATOM
      1 N9          -1.7170    -1.5120    -0.0170 na         1 6AP      -0.421300
      2 C8          -2.6670    -0.5310     0.0330 cc         1 6AP       0.387700
      3 N7          -2.1610     0.6650     0.0570 nd         1 6AP      -0.542100
      4 C5          -0.8020     0.4590     0.0220 ca         1 6AP      -0.143600
      5 C4          -0.5050    -0.8960    -0.0240 ca         1 6AP       0.167500
      6 N3           0.7050    -1.4460    -0.0670 nb         1 6AP      -0.290000
      7 C2           1.6700    -0.5290    -0.0650 ca         1 6AP       0.423900
      8 N2           2.9480    -0.9790    -0.1580 nv         1 6AP      -1.045900
      9 N1           1.5260     0.8060    -0.0210 nb         1 6AP      -0.353000
     10 C6           0.3040     1.3280     0.0240 ca         1 6AP       0.478900
     11 N6           0.1670     2.6590     0.0940 nv         1 6AP      -1.059900
     12 HN9         -1.8890    -2.5060    -0.0390 hn         1 6AP       0.366000
     13 H8          -3.7190    -0.7690     0.0480 h5         1 6AP       0.063800
     14 HN21         3.6800    -0.3460     0.1140 hn         1 6AP       0.484500
     15 HN22         3.1110    -1.9490     0.0530 hn         1 6AP       0.484500
     16 HN61         0.9700     3.2460    -0.0530 hn         1 6AP       0.500500
     17 HN62        -0.7400     3.0770    -0.0160 hn         1 6AP       0.500500
@<TRIPOS>BOND
     1     1     2 1   
     2     1     5 1   
     3     1    12 1   
     4     2     3 2   
     5     2    13 1   
     6     3     4 1   
     7     4     5 ar  
     8     4    10 ar  
     9     5     6 ar  
    10     6     7 ar  
    11     7     8 1   
    12     7     9 ar  
    13     8    14 1   
    14     8    15 1   
    15     9    10 ar  
    16    10    11 1   
    17    11    16 1   
    18    11    17 1   
@<TRIPOS>SUBSTRUCTURE
     1 6AP         1 TEMP              0 ****  ****    0 ROOT
