@<TRIPOS>MOLECULE
6AP
   17    18     1     0     0
SMALL
No Charge or Current Charge


@<TRIPOS>ATOM
      1 N9          -1.7460    -1.5170    -0.0330 na         1 6AP      -0.421300
      2 C8          -2.7220    -0.5250     0.0420 cc         1 6AP       0.387700
      3 N7          -2.1560     0.6960     0.0930 nd         1 6AP      -0.542100
      4 C5          -0.7830     0.4210     0.0480 ca         1 6AP      -0.143600
      5 C4          -0.5250    -0.9230    -0.0300 ca         1 6AP       0.167500
      6 N3           0.7230    -1.4180    -0.0900 nb         1 6AP      -0.290000
      7 C2           1.7000    -0.4930    -0.0690 ca         1 6AP       0.423900
      8 N2           2.9660    -0.9610    -0.1280 nv         1 6AP      -1.045900
      9 N1           1.5770     0.8420     0.0060 nb         1 6AP      -0.353000
     10 C6           0.3190     1.2990     0.0680 ca         1 6AP       0.478900
     11 N6           0.1770     2.6470     0.1400 nv         1 6AP      -1.059900
     12 HN9         -1.9230    -2.5110    -0.0810 hn         1 6AP       0.366000
     13 H8          -3.7830    -0.7470     0.0540 h5         1 6AP       0.063800
     14 HN21         3.7220    -0.3250     0.1130 hn         1 6AP       0.484500
     15 HN22         3.1240    -1.9500     0.0440 hn         1 6AP       0.484500
     16 HN61         0.9630     3.2210    -0.1510 hn         1 6AP       0.500500
     17 HN62        -0.7520     3.0200    -0.0410 hn         1 6AP       0.500500
@<TRIPOS>BOND
     1     1     2 1   
     2     1     5 1   
     3     1    12 1   
     4     2     3 2   
     5     2    13 1   
     6     3     4 1   
     7     4     5 ar  
     8     4    10 ar  
     9     5     6 ar  
    10     6     7 ar  
    11     7     8 1   
    12     7     9 ar  
    13     8    14 1   
    14     8    15 1   
    15     9    10 ar  
    16    10    11 1   
    17    11    16 1   
    18    11    17 1   
@<TRIPOS>SUBSTRUCTURE
     1 6AP         1 TEMP              0 ****  ****    0 ROOT
