@<TRIPOS>MOLECULE
6AQ
   19    20     1     0     0
SMALL
No Charge or Current Charge


@<TRIPOS>ATOM
      1 C10          3.3940     0.8130     0.1530 cc         1 6AQ       0.233900
      2 C02         -2.6140     0.0640    -0.0370 ca         1 6AQ       0.172000
      3 C03         -2.0460    -1.0470     0.6050 ca         1 6AQ      -0.136500
      4 C04         -0.6470    -1.1780     0.6740 ca         1 6AQ      -0.091000
      5 C05          0.1850    -0.1970     0.1010 ca         1 6AQ      -0.013200
      6 C06         -0.3940     0.9190    -0.5430 ca         1 6AQ      -0.091000
      7 C07         -1.7930     1.0470    -0.6110 ca         1 6AQ      -0.136500
      8 N08          1.5690    -0.3430     0.1760 na         1 6AQ      -0.076300
      9 C09          2.2380     0.6420     0.8700 cd         1 6AQ      -0.223000
     10 N11          3.3850     0.0760    -1.0070 nc         1 6AQ      -0.667000
     11 C12          2.2210    -0.5710    -1.0230 cd         1 6AQ       0.400400
     12 H1           4.2260     1.4680     0.3750 h4         1 6AQ       0.040100
     13 H2          -2.6900    -1.8040     1.0480 ha         1 6AQ       0.139000
     14 H3          -0.2090    -2.0400     1.1730 ha         1 6AQ       0.132000
     15 H4           0.2390     1.6840    -0.9880 ha         1 6AQ       0.132000
     16 H5          -2.2410     1.9050    -1.1060 ha         1 6AQ       0.139000
     17 H6           1.8740     1.1140     1.7750 h4         1 6AQ       0.159000
     18 H7           1.8100    -1.1840    -1.8160 h5         1 6AQ       0.057100
     19 F01         -3.9580     0.1890    -0.1020 f          1 6AQ      -0.172000
@<TRIPOS>BOND
     1     1     9 2   
     2     1    10 1   
     3     1    12 1   
     4     2     3 ar  
     5     2     7 ar  
     6     2    19 1   
     7     3     4 ar  
     8     3    13 1   
     9     4     5 ar  
    10     4    14 1   
    11     5     6 ar  
    12     5     8 1   
    13     6     7 ar  
    14     6    15 1   
    15     7    16 1   
    16     8     9 1   
    17     8    11 1   
    18     9    17 1   
    19    10    11 2   
    20    11    18 1   
@<TRIPOS>SUBSTRUCTURE
     1 6AQ         1 TEMP              0 ****  ****    0 ROOT
