@<TRIPOS>MOLECULE
6AQ
   19    20     1     0     0
SMALL
abcg2


@<TRIPOS>ATOM
      1 C10          3.5840     0.6100     0.1510 cc         1 6AQ       0.233900
      2 C02         -2.6650    -0.0020     0.0300 ca         1 6AQ       0.172000
      3 C03         -1.9750    -1.1700     0.2880 ca         1 6AQ      -0.136500
      4 C04         -0.5900    -1.1460     0.2670 ca         1 6AQ      -0.091000
      5 C05          0.0830     0.0330    -0.0320 ca         1 6AQ      -0.013200
      6 C06         -0.6320     1.1950    -0.2960 ca         1 6AQ      -0.091000
      7 C07         -2.0170     1.1840    -0.2570 ca         1 6AQ      -0.136500
      8 N08          1.4920     0.0490    -0.0670 na         1 6AQ      -0.076300
      9 C09          2.3160     1.0330     0.4190 cd         1 6AQ      -0.223000
     10 N11          3.5580    -0.5990    -0.4880 nc         1 6AQ      -0.667000
     11 C12          2.2950    -0.9060    -0.6030 cd         1 6AQ       0.400400
     12 H1           4.5090     1.1120     0.3890 h4         1 6AQ       0.040100
     13 H2          -2.5050    -2.0840     0.5210 ha         1 6AQ       0.139000
     14 H3          -0.0400    -2.0480     0.5010 ha         1 6AQ       0.132000
     15 H4          -0.1150     2.1120    -0.5470 ha         1 6AQ       0.132000
     16 H5          -2.5800     2.0850    -0.4620 ha         1 6AQ       0.139000
     17 H6           1.9370     1.9070     0.9190 h4         1 6AQ       0.159000
     18 H7           1.8970    -1.7890    -1.0790 h5         1 6AQ       0.057100
     19 F01         -4.0050    -0.0180     0.0620 f          1 6AQ      -0.172000
@<TRIPOS>BOND
     1     1     9 2   
     2     1    10 1   
     3     1    12 1   
     4     2     3 ar  
     5     2     7 ar  
     6     2    19 1   
     7     3     4 ar  
     8     3    13 1   
     9     4     5 ar  
    10     4    14 1   
    11     5     6 ar  
    12     5     8 1   
    13     6     7 ar  
    14     6    15 1   
    15     7    16 1   
    16     8     9 1   
    17     8    11 1   
    18     9    17 1   
    19    10    11 2   
    20    11    18 1   
@<TRIPOS>SUBSTRUCTURE
     1 6AQ         1 TEMP              0 ****  ****    0 ROOT
