@<TRIPOS>MOLECULE
6AR
   19    20     1     0     0
SMALL
No Charge or Current Charge


@<TRIPOS>ATOM
      1 Br          -3.3240     0.0240    -0.0270 br         1 6AR      -0.083100
      2 C02         -1.4110     0.0070    -0.0100 ca         1 6AR      -0.026900
      3 C03         -0.6970     1.1890    -0.2630 ca         1 6AR      -0.066500
      4 C04          0.7090     1.1760    -0.2490 ca         1 6AR      -0.120500
      5 C05          1.4120    -0.0190     0.0170 ca         1 6AR       0.019800
      6 C06          0.6830    -1.2010     0.2690 ca         1 6AR      -0.120500
      7 C07         -0.7240    -1.1880     0.2560 ca         1 6AR      -0.066500
      8 N08          2.8110    -0.0330     0.0310 na         1 6AR      -0.080300
      9 C09          3.5940    -1.0830    -0.3840 cc         1 6AR      -0.221000
     10 C10          4.8760    -0.6380    -0.1740 cd         1 6AR       0.234900
     11 N11          4.8810     0.6450     0.3580 nd         1 6AR      -0.666000
     12 C12          3.6050     0.9980     0.4750 cc         1 6AR       0.402400
     13 H1          -1.2310     2.1130    -0.4710 ha         1 6AR       0.136000
     14 H2           1.2460     2.0990    -0.4580 ha         1 6AR       0.131000
     15 H3           1.2010    -2.1320     0.4860 ha         1 6AR       0.131000
     16 H4          -1.2780    -2.1030     0.4540 ha         1 6AR       0.136000
     17 H5           3.2140    -2.0130    -0.7860 h4         1 6AR       0.160000
     18 H6           5.7990    -1.1680    -0.3770 h4         1 6AR       0.041100
     19 H7           3.2150     1.9310     0.8650 h5         1 6AR       0.058100
@<TRIPOS>BOND
     1     1     2 1   
     2     2     3 ar  
     3     2     7 ar  
     4     3     4 ar  
     5     3    13 1   
     6     4     5 ar  
     7     4    14 1   
     8     5     6 ar  
     9     5     8 1   
    10     6     7 ar  
    11     6    15 1   
    12     7    16 1   
    13     8     9 1   
    14     8    12 1   
    15     9    10 2   
    16     9    17 1   
    17    10    11 1   
    18    10    18 1   
    19    11    12 2   
    20    12    19 1   
@<TRIPOS>SUBSTRUCTURE
     1 6AR         1 TEMP              0 ****  ****    0 ROOT
