@<TRIPOS>MOLECULE
6AR
   19    20     1     0     0
SMALL
bcc


@<TRIPOS>ATOM
      1 BR          -3.2720     0.0320    -0.0240 br         1 6AR      -0.083100
      2 C02         -1.3860     0.0100    -0.0070 ca         1 6AR      -0.026900
      3 C03         -0.6860     1.1770    -0.2750 ca         1 6AR      -0.084500
      4 C04          0.6990     1.1560    -0.2730 ca         1 6AR      -0.138500
      5 C05          1.3770    -0.0220     0.0160 ca         1 6AR       0.019800
      6 C06          0.6670    -1.1850     0.2890 ca         1 6AR      -0.138500
      7 C07         -0.7180    -1.1740     0.2700 ca         1 6AR      -0.084500
      8 N08          2.7850    -0.0380     0.0310 na         1 6AR      -0.131000
      9 C09          3.6020    -1.0520    -0.4040 cc         1 6AR      -0.253600
     10 C10          4.8730    -0.6170    -0.1790 cd         1 6AR       0.300200
     11 N11          4.8570     0.6290     0.3860 nd         1 6AR      -0.666000
     12 C12          3.5980     0.9470     0.4970 cc         1 6AR       0.402400
     13 H1          -1.2020     2.1000    -0.5020 ha         1 6AR       0.154000
     14 H2           1.2420     2.0600    -0.5140 ha         1 6AR       0.149000
     15 H3           1.1850    -2.1030     0.5350 ha         1 6AR       0.149000
     16 H4          -1.2590    -2.0850     0.4860 ha         1 6AR       0.154000
     17 H5           3.2170    -1.9560    -0.8460 h4         1 6AR       0.178000
     18 H6           5.7940    -1.1340    -0.3990 h4         1 6AR       0.041100
     19 H7           3.2080     1.8580     0.9240 h5         1 6AR       0.058100
@<TRIPOS>BOND
     1     1     2 1   
     2     2     3 ar  
     3     2     7 ar  
     4     3     4 ar  
     5     3    13 1   
     6     4     5 ar  
     7     4    14 1   
     8     5     6 ar  
     9     5     8 1   
    10     6     7 ar  
    11     6    15 1   
    12     7    16 1   
    13     8     9 1   
    14     8    12 1   
    15     9    10 2   
    16     9    17 1   
    17    10    11 1   
    18    10    18 1   
    19    11    12 2   
    20    12    19 1   
@<TRIPOS>SUBSTRUCTURE
     1 6AR         1 TEMP              0 ****  ****    0 ROOT
