@<TRIPOS>MOLECULE
6AS
   57    57     1     0     0
SMALL
No Charge or Current Charge


@<TRIPOS>ATOM
      1 O11          5.6410     1.9940     1.6590 o          1 6AS      -0.720000
      2 C1           6.4880     1.9790     0.7810 c          1 6AS       0.695200
      3 O12          7.5770     2.5170     0.9090 o          1 6AS      -0.720000
      4 C2           6.2170     1.3050    -0.5350 ce         1 6AS      -0.196200
      5 C3           5.1180     0.6060    -0.9800 cf         1 6AS      -0.166200
      6 C6           5.1380     0.0290    -2.3920 c3         1 6AS      -0.044900
      7 C4           3.9250     0.3100    -0.1730 cf         1 6AS      -0.077000
      8 C5           2.7240    -0.0950    -0.6690 c2         1 6AS      -0.363200
      9 C10          1.4810    -0.4370     0.1530 c6         1 6AS       0.270400
     10 C11          0.1850    -0.0290    -0.5920 c2         1 6AS       0.006600
     11 C7           0.2720     1.2390    -1.4410 c3         1 6AS      -0.077900
     12 O1           1.5240     0.3570     1.3380 oh         1 6AS      -0.654000
     13 C13          1.4780    -1.9810     0.5340 c6         1 6AS      -0.014000
     14 C8           2.6660    -2.3640     1.4800 c3         1 6AS      -0.081600
     15 C9           1.6350    -2.8800    -0.7400 c3         1 6AS      -0.081600
     16 C15          0.1430    -2.3450     1.2500 c6         1 6AS      -0.173400
     17 C14         -1.0830    -2.0370     0.3930 c          1 6AS       0.588300
     18 O4          -2.0520    -2.7890     0.3940 o          1 6AS      -0.539100
     19 C12         -0.9870    -0.7590    -0.4540 ce         1 6AS      -0.116600
     20 S           -2.5420    -0.3560    -1.3260 ss         1 6AS      -0.364600
     21 CA1         -3.7440     0.0320     0.0250 c3         1 6AS       0.060600
     22 CA2         -5.1040     0.4480    -0.5670 c3         1 6AS      -0.064400
     23 CA3         -6.1500     0.7900     0.5160 c3         1 6AS      -0.075400
     24 CA4         -7.5160     1.2080    -0.0730 c3         1 6AS      -0.075400
     25 CA5         -8.5620     1.5500     1.0090 c3         1 6AS      -0.075400
     26 CA6         -9.9240     1.9660     0.4220 c3         1 6AS      -0.088100
     27 H2           7.0450     1.4180    -1.2310 ha         1 6AS       0.148000
     28 H3           4.7790    -1.0070    -2.4080 hc         1 6AS       0.019033
     29 H4           4.5030     0.6160    -3.0670 hc         1 6AS       0.019033
     30 H5           6.1470     0.0200    -2.8200 hc         1 6AS       0.019033
     31 H6           4.0290     0.4070     0.9090 ha         1 6AS       0.230000
     32 H7           2.5980    -0.2170    -1.7430 ha         1 6AS       0.166000
     33 H8           0.6530     1.0150    -2.4440 hc         1 6AS       0.058700
     34 H9          -0.7040     1.7210    -1.5610 hc         1 6AS       0.058700
     35 H10          0.9340     1.9870    -0.9890 hc         1 6AS       0.058700
     36 H11          1.7140     1.2670     1.0320 ho         1 6AS       0.459000
     37 H12          2.6400    -1.7980     2.4180 hc         1 6AS       0.039200
     38 H13          2.6330    -3.4280     1.7470 hc         1 6AS       0.039200
     39 H14          3.6390    -2.1830     1.0100 hc         1 6AS       0.039200
     40 H15          2.6190    -2.7550    -1.2080 hc         1 6AS       0.039200
     41 H16          1.5320    -3.9440    -0.4930 hc         1 6AS       0.039200
     42 H17          0.8840    -2.6500    -1.5050 hc         1 6AS       0.039200
     43 H18          0.1040    -3.3870     1.5960 hc         1 6AS       0.071200
     44 H19          0.0610    -1.7000     2.1350 hc         1 6AS       0.071200
     45 H20         -3.8730    -0.8500     0.6640 h1         1 6AS       0.062700
     46 H21         -3.3400     0.8490     0.6380 h1         1 6AS       0.062700
     47 H22         -4.9590     1.3180    -1.2190 hc         1 6AS       0.048200
     48 H23         -5.4840    -0.3660    -1.1950 hc         1 6AS       0.048200
     49 H24         -6.2900    -0.0810     1.1690 hc         1 6AS       0.038700
     50 H25         -5.7650     1.6030     1.1440 hc         1 6AS       0.038700
     51 H26         -7.3750     2.0790    -0.7260 hc         1 6AS       0.036700
     52 H27         -7.9010     0.3950    -0.7020 hc         1 6AS       0.036700
     53 H28         -8.7070     0.6800     1.6630 hc         1 6AS       0.036700
     54 H29         -8.1820     2.3640     1.6390 hc         1 6AS       0.036700
     55 H30         -9.8190     2.8560    -0.2100 hc         1 6AS       0.029033
     56 H31        -10.3490     1.1580    -0.1860 hc         1 6AS       0.029033
     57 H32        -10.6320     2.1980     1.2260 hc         1 6AS       0.029033
@<TRIPOS>BOND
     1     1     2 1   
     2     2     3 1   
     3     2     4 1   
     4     4     5 2   
     5     4    27 1   
     6     5     6 1   
     7     5     7 1   
     8     6    28 1   
     9     6    29 1   
    10     6    30 1   
    11     7     8 2   
    12     7    31 1   
    13     8     9 1   
    14     8    32 1   
    15     9    10 1   
    16     9    12 1   
    17     9    13 1   
    18    10    11 1   
    19    10    19 2   
    20    11    33 1   
    21    11    34 1   
    22    11    35 1   
    23    12    36 1   
    24    13    14 1   
    25    13    15 1   
    26    13    16 1   
    27    14    37 1   
    28    14    38 1   
    29    14    39 1   
    30    15    40 1   
    31    15    41 1   
    32    15    42 1   
    33    16    17 1   
    34    16    43 1   
    35    16    44 1   
    36    17    18 2   
    37    17    19 1   
    38    19    20 1   
    39    20    21 1   
    40    21    22 1   
    41    21    45 1   
    42    21    46 1   
    43    22    23 1   
    44    22    47 1   
    45    22    48 1   
    46    23    24 1   
    47    23    49 1   
    48    23    50 1   
    49    24    25 1   
    50    24    51 1   
    51    24    52 1   
    52    25    26 1   
    53    25    53 1   
    54    25    54 1   
    55    26    55 1   
    56    26    56 1   
    57    26    57 1   
@<TRIPOS>SUBSTRUCTURE
     1 6AS         1 TEMP              0 ****  ****    0 ROOT
