@<TRIPOS>MOLECULE
6AS
   57    57     1     0     0
SMALL
abcg2


@<TRIPOS>ATOM
      1 O11          5.2880     2.0220     1.6950 o          1 6AS      -0.720000
      2 C1           6.1520     2.0830     0.7950 c          1 6AS       0.695200
      3 O12          7.2870     2.5920     0.9050 o          1 6AS      -0.720000
      4 C2           5.8590     1.5110    -0.5740 ce         1 6AS      -0.196200
      5 C3           4.7940     0.8200    -1.0250 cf         1 6AS      -0.166200
      6 C6           4.7730     0.3560    -2.4550 c3         1 6AS      -0.044900
      7 C4           3.6450     0.4740    -0.1890 cf         1 6AS      -0.077000
      8 C5           2.5860    -0.2100    -0.6290 c2         1 6AS      -0.363200
      9 C10          1.4010    -0.5960     0.2200 c6         1 6AS       0.270400
     10 C11          0.1090    -0.2210    -0.5260 c2         1 6AS       0.006600
     11 C7           0.1540     1.0830    -1.2560 c3         1 6AS      -0.077900
     12 O1           1.3710     0.0990     1.4470 oh         1 6AS      -0.654000
     13 C13          1.4650    -2.1100     0.5610 c6         1 6AS      -0.014000
     14 C8           2.5920    -2.4050     1.5500 c3         1 6AS      -0.081600
     15 C9           1.7020    -2.9510    -0.6990 c3         1 6AS      -0.081600
     16 C15          0.1340    -2.5190     1.1920 c6         1 6AS      -0.173400
     17 C14         -1.0460    -2.2410     0.3090 c          1 6AS       0.588300
     18 O4          -2.0130    -2.9750     0.2790 o          1 6AS      -0.539100
     19 C12         -0.9980    -0.9890    -0.4780 ce         1 6AS      -0.116600
     20 S           -2.4570    -0.5890    -1.3950 ss         1 6AS      -0.364600
     21 CA1         -3.5800    -0.0640    -0.0580 c3         1 6AS       0.060600
     22 CA2         -4.9300     0.3230    -0.6420 c3         1 6AS      -0.064400
     23 CA3         -5.8790     0.8340     0.4360 c3         1 6AS      -0.075400
     24 CA4         -7.2470     1.2260    -0.1090 c3         1 6AS      -0.075400
     25 CA5         -8.1820     1.7680     0.9660 c3         1 6AS      -0.075400
     26 CA6         -9.5490     2.1590     0.4220 c3         1 6AS      -0.088100
     27 H2           6.6520     1.6880    -1.2950 ha         1 6AS       0.148000
     28 H3           4.7150    -0.7330    -2.5200 hc         1 6AS       0.019033
     29 H4           3.9060     0.7500    -2.9910 hc         1 6AS       0.019033
     30 H5           5.6670     0.6750    -2.9890 hc         1 6AS       0.019033
     31 H6           3.6980     0.8020     0.8400 ha         1 6AS       0.230000
     32 H7           2.5330    -0.5420    -1.6600 ha         1 6AS       0.166000
     33 H8           0.5690     0.9460    -2.2580 hc         1 6AS       0.058700
     34 H9          -0.8340     1.5210    -1.3710 hc         1 6AS       0.058700
     35 H10          0.8030     1.8020    -0.7530 hc         1 6AS       0.058700
     36 H11          1.4600     1.0440     1.2790 ho         1 6AS       0.459000
     37 H12          2.4180    -1.9520     2.5250 hc         1 6AS       0.039200
     38 H13          2.6690    -3.4840     1.6990 hc         1 6AS       0.039200
     39 H14          3.5550    -2.0560     1.1790 hc         1 6AS       0.039200
     40 H15          2.7030    -2.7940    -1.1010 hc         1 6AS       0.039200
     41 H16          1.6140    -4.0100    -0.4500 hc         1 6AS       0.039200
     42 H17          0.9890    -2.7440    -1.4980 hc         1 6AS       0.039200
     43 H18          0.1440    -3.5800     1.4490 hc         1 6AS       0.071200
     44 H19         -0.0290    -1.9710     2.1270 hc         1 6AS       0.071200
     45 H20         -3.6930    -0.8780     0.6590 h1         1 6AS       0.062700
     46 H21         -3.1270     0.7840     0.4570 h1         1 6AS       0.062700
     47 H22         -4.7940     1.0960    -1.4050 hc         1 6AS       0.048200
     48 H23         -5.3730    -0.5410    -1.1460 hc         1 6AS       0.048200
     49 H24         -6.0020     0.0670     1.2080 hc         1 6AS       0.038700
     50 H25         -5.4270     1.6980     0.9340 hc         1 6AS       0.038700
     51 H26         -7.1230     1.9800    -0.8950 hc         1 6AS       0.036700
     52 H27         -7.7100     0.3580    -0.5910 hc         1 6AS       0.036700
     53 H28         -8.3010     1.0180     1.7540 hc         1 6AS       0.036700
     54 H29         -7.7180     2.6360     1.4430 hc         1 6AS       0.036700
     55 H30         -9.4600     2.9250    -0.3510 hc         1 6AS       0.029033
     56 H31        -10.0600     1.3030    -0.0220 hc         1 6AS       0.029033
     57 H32        -10.1930     2.5570     1.2070 hc         1 6AS       0.029033
@<TRIPOS>BOND
     1     1     2 1   
     2     2     3 1   
     3     2     4 1   
     4     4     5 2   
     5     4    27 1   
     6     5     6 1   
     7     5     7 1   
     8     6    28 1   
     9     6    29 1   
    10     6    30 1   
    11     7     8 2   
    12     7    31 1   
    13     8     9 1   
    14     8    32 1   
    15     9    10 1   
    16     9    12 1   
    17     9    13 1   
    18    10    11 1   
    19    10    19 2   
    20    11    33 1   
    21    11    34 1   
    22    11    35 1   
    23    12    36 1   
    24    13    14 1   
    25    13    15 1   
    26    13    16 1   
    27    14    37 1   
    28    14    38 1   
    29    14    39 1   
    30    15    40 1   
    31    15    41 1   
    32    15    42 1   
    33    16    17 1   
    34    16    43 1   
    35    16    44 1   
    36    17    18 2   
    37    17    19 1   
    38    19    20 1   
    39    20    21 1   
    40    21    22 1   
    41    21    45 1   
    42    21    46 1   
    43    22    23 1   
    44    22    47 1   
    45    22    48 1   
    46    23    24 1   
    47    23    49 1   
    48    23    50 1   
    49    24    25 1   
    50    24    51 1   
    51    24    52 1   
    52    25    26 1   
    53    25    53 1   
    54    25    54 1   
    55    26    55 1   
    56    26    56 1   
    57    26    57 1   
@<TRIPOS>SUBSTRUCTURE
     1 6AS         1 TEMP              0 ****  ****    0 ROOT
