@<TRIPOS>MOLECULE
6AV
   21    22     1     0     0
SMALL
No Charge or Current Charge


@<TRIPOS>ATOM
      1 N1           1.9210     0.2390     0.1320 na         1 6AV      -0.081300
      2 C2          -2.2950     0.1270     0.1050 ca         1 6AV       0.173000
      3 C3          -1.6170     1.2120     0.6790 ca         1 6AV      -0.150000
      4 C4          -0.2130     1.2390     0.6830 ca         1 6AV      -0.050000
      5 C6           2.7230     0.2250    -0.9810 cc         1 6AV      -0.217000
      6 C7           3.9870     0.4040    -0.4730 cd         1 6AV       0.222900
      7 C8           2.6770     0.4610     1.2580 cc         1 6AV       0.392400
      8 Cl          -4.0530     0.0950     0.1020 cl         1 6AV      -0.195000
      9 C1          -1.5760    -0.9330    -0.4620 ca         1 6AV      -0.185000
     10 C5           0.5220     0.1800     0.1090 ca         1 6AV      -0.096200
     11 C           -0.1750    -0.9150    -0.4640 ca         1 6AV       0.329000
     12 N            0.4900    -1.9850    -1.0110 nv         1 6AV      -1.076000
     13 N2           3.9570     0.5490     0.9090 nd         1 6AV      -0.671000
     14 H1          -2.1800     2.0310     1.1180 ha         1 6AV       0.139000
     15 H2           0.3030     2.0900     1.1250 ha         1 6AV       0.131000
     16 H3           2.3620     0.1010    -1.9940 h4         1 6AV       0.165000
     17 H4           4.9180     0.4470    -1.0250 h4         1 6AV       0.039100
     18 H5           2.2570     0.5380     2.2540 h5         1 6AV       0.056100
     19 H6          -2.1130    -1.7690    -0.8990 ha         1 6AV       0.134000
     20 H7           1.4980    -2.0520    -0.8880 hn         1 6AV       0.469000
     21 H8          -0.0150    -2.8380    -1.2400 hn         1 6AV       0.469000
@<TRIPOS>BOND
     1     1     5 1   
     2     1     7 1   
     3     1    10 1   
     4     2     3 ar  
     5     2     8 1   
     6     2     9 ar  
     7     3     4 ar  
     8     3    14 1   
     9     4    10 ar  
    10     4    15 1   
    11     5     6 2   
    12     5    16 1   
    13     6    13 1   
    14     6    17 1   
    15     7    13 2   
    16     7    18 1   
    17     9    11 ar  
    18     9    19 1   
    19    10    11 ar  
    20    11    12 1   
    21    12    20 1   
    22    12    21 1   
@<TRIPOS>SUBSTRUCTURE
     1 6AV         1 TEMP              0 ****  ****    0 ROOT
