@<TRIPOS>MOLECULE
6AV
   21    22     1     0     0
SMALL
abcg2


@<TRIPOS>ATOM
      1 N1           1.8900     0.2740     0.0980 na         1 6AV      -0.081300
      2 C2          -2.2700     0.1330     0.1010 ca         1 6AV       0.173000
      3 C3          -1.6390     1.2550     0.6170 ca         1 6AV      -0.150000
      4 C4          -0.2550     1.2800     0.5950 ca         1 6AV      -0.050000
      5 C6           2.7200     0.3870    -0.9910 cc         1 6AV      -0.217000
      6 C7           3.9830     0.4270    -0.4800 cd         1 6AV       0.222900
      7 C8           2.6850     0.2520     1.1970 cc         1 6AV       0.392400
      8 CL          -4.0020     0.0640     0.1050 cl         1 6AV      -0.195000
      9 C1          -1.5670    -0.9390    -0.4140 ca         1 6AV      -0.185000
     10 C5           0.4760     0.2190     0.0880 ca         1 6AV      -0.096200
     11 C           -0.1660    -0.9200    -0.4270 ca         1 6AV       0.329000
     12 N            0.5390    -1.9580    -0.9680 nv         1 6AV      -1.076000
     13 N2           3.9480     0.3430     0.8850 nd         1 6AV      -0.671000
     14 H1          -2.2030     2.0860     1.0160 ha         1 6AV       0.139000
     15 H2           0.2720     2.1450     0.9790 ha         1 6AV       0.131000
     16 H3           2.3420     0.4380    -1.9980 h4         1 6AV       0.165000
     17 H4           4.9110     0.5160    -1.0230 h4         1 6AV       0.039100
     18 H5           2.2750     0.1620     2.1920 h5         1 6AV       0.056100
     19 H6          -2.0910    -1.8030    -0.8010 ha         1 6AV       0.134000
     20 H7           1.4880    -2.0900    -0.6570 hn         1 6AV       0.469000
     21 H8           0.0420    -2.8260    -1.0770 hn         1 6AV       0.469000
@<TRIPOS>BOND
     1     1     5 1   
     2     1     7 1   
     3     1    10 1   
     4     2     3 ar  
     5     2     8 1   
     6     2     9 ar  
     7     3     4 ar  
     8     3    14 1   
     9     4    10 ar  
    10     4    15 1   
    11     5     6 2   
    12     5    16 1   
    13     6    13 1   
    14     6    17 1   
    15     7    13 2   
    16     7    18 1   
    17     9    11 ar  
    18     9    19 1   
    19    10    11 ar  
    20    11    12 1   
    21    12    20 1   
    22    12    21 1   
@<TRIPOS>SUBSTRUCTURE
     1 6AV         1 TEMP              0 ****  ****    0 ROOT
