@<TRIPOS>MOLECULE
6AW
   78    79     1     0     0
SMALL
No Charge or Current Charge


@<TRIPOS>ATOM
      1 O31          6.5530    -2.1320    -1.2360 o          1 6AW      -0.544000
      2 C30          6.0990    -1.5180    -0.2840 c          1 6AW       0.641100
      3 O32          6.5930    -0.3580     0.2230 os         1 6AW      -0.470100
      4 C33          7.7490     0.2000    -0.4150 c3         1 6AW       0.263900
      5 C34          8.0920     1.4650     0.3150 cc         1 6AW      -0.252300
      6 S38          7.7020     3.0290    -0.3430 ss         1 6AW      -0.012400
      7 C37          8.4220     3.7300     1.0820 cc         1 6AW       0.414300
      8 N36          8.9130     2.8780     1.9760 nd         1 6AW      -0.631000
      9 C35          8.7200     1.5750     1.5340 cd         1 6AW       0.289900
     10 N29          5.0040    -1.8820     0.4450 ns         1 6AW      -0.499900
     11 C03          4.1880    -3.0740     0.2010 c3         1 6AW       0.125700
     12 C02          4.0350    -3.9040     1.4990 c3         1 6AW      -0.091400
     13 C01          5.3730    -4.3940     2.0950 c3         1 6AW      -0.089100
     14 C04          2.8190    -2.6910    -0.4100 c3         1 6AW      -0.095400
     15 C05          2.9170    -1.9350    -1.7620 c3         1 6AW      -0.089400
     16 C06          1.5490    -1.6670    -2.4350 c3         1 6AW       0.109700
     17 C07          1.7020    -0.9870    -3.8160 c3         1 6AW      -0.088400
     18 C08          0.3680    -0.7820    -4.5670 c3         1 6AW      -0.088100
     19 N09          0.6890    -0.8670    -1.5570 ns         1 6AW      -0.500900
     20 C10         -0.4490    -1.3280    -0.9220 c          1 6AW       0.605100
     21 O11         -0.8550    -2.4760    -1.0730 o          1 6AW      -0.608100
     22 C12         -1.1830    -0.2820    -0.0370 c3         1 6AW       0.051700
     23 C13         -0.2970     0.1890     1.1490 c3         1 6AW       0.138600
     24 O14         -0.0040    -0.8990     2.0400 oh         1 6AW      -0.657000
     25 N15         -2.4910    -0.8120     0.4200 ns         1 6AW      -0.511900
     26 C16         -3.5270    -0.0540     0.9000 c          1 6AW       0.668100
     27 O17         -3.4640     1.1640     0.9480 o          1 6AW      -0.653100
     28 N18         -4.6650    -0.7680     1.3240 n          1 6AW      -0.408800
     29 C19         -4.7400    -2.2470     1.2510 c3         1 6AW       0.081300
     30 C20         -5.8540    -0.0400     1.8400 c3         1 6AW       0.083700
     31 C21         -6.7230     0.5390     0.7450 cc         1 6AW       0.255300
     32 N28         -7.5170     1.6220     1.0340 nc         1 6AW      -0.629000
     33 C24         -8.2040     1.9840    -0.0410 cd         1 6AW       0.449700
     34 C25         -9.1620     3.1560    -0.0100 c3         1 6AW      -0.101000
     35 C27         -8.7230     4.2830    -0.9750 c3         1 6AW      -0.089100
     36 C26        -10.6200     2.7140    -0.2780 c3         1 6AW      -0.089100
     37 S23         -7.9410     1.0210    -1.4920 ss         1 6AW      -0.051400
     38 C22         -6.8150     0.0680    -0.5450 cd         1 6AW      -0.264000
     39 H1           8.5990    -0.4950    -0.3670 h1         1 6AW       0.064200
     40 H2           7.5460     0.4230    -1.4710 h1         1 6AW       0.064200
     41 H3           8.4440     4.8080     1.1850 h5         1 6AW       0.054100
     42 H4           9.0590     0.7470     2.1450 h4         1 6AW       0.045100
     43 H5           4.7550    -1.2640     1.2050 hn         1 6AW       0.320500
     44 H6           4.7090    -3.7090    -0.5300 h1         1 6AW       0.081700
     45 H7           3.5030    -3.3100     2.2520 hc         1 6AW       0.046700
     46 H8           3.4080    -4.7800     1.2890 hc         1 6AW       0.046700
     47 H9           5.1900    -5.0190     2.9770 hc         1 6AW       0.037033
     48 H10          5.9290    -4.9900     1.3620 hc         1 6AW       0.037033
     49 H11          6.0010    -3.5490     2.4030 hc         1 6AW       0.037033
     50 H12          2.2320    -3.6050    -0.5610 hc         1 6AW       0.059200
     51 H13          2.2670    -2.0780     0.3130 hc         1 6AW       0.059200
     52 H14          3.4320    -0.9790    -1.6120 hc         1 6AW       0.047700
     53 H15          3.5380    -2.5240    -2.4490 hc         1 6AW       0.047700
     54 H16          1.0720    -2.6430    -2.6070 h1         1 6AW       0.083700
     55 H17          2.1950    -0.0150    -3.6930 hc         1 6AW       0.043700
     56 H18          2.3620    -1.5980    -4.4430 hc         1 6AW       0.043700
     57 H19         -0.1510    -1.7390    -4.7030 hc         1 6AW       0.037367
     58 H20         -0.2950    -0.1030    -4.0190 hc         1 6AW       0.037367
     59 H21          0.5520    -0.3500    -5.5580 hc         1 6AW       0.037367
     60 H22          0.9470     0.0980    -1.3920 hn         1 6AW       0.308500
     61 H23         -1.3720     0.5850    -0.6820 h1         1 6AW       0.087700
     62 H24          0.6340     0.6220     0.7600 h1         1 6AW       0.034200
     63 H25         -0.8230     0.9870     1.6900 h1         1 6AW       0.034200
     64 H26          0.4620    -0.5200     2.8180 ho         1 6AW       0.442000
     65 H27         -2.6220    -1.8150     0.4150 hn         1 6AW       0.345500
     66 H28         -3.9740    -2.6910     1.9000 h1         1 6AW       0.040033
     67 H29         -5.7260    -2.6000     1.5800 h1         1 6AW       0.040033
     68 H30         -4.5810    -2.5790     0.2170 h1         1 6AW       0.040033
     69 H31         -6.4660    -0.7150     2.4520 h1         1 6AW       0.073700
     70 H32         -5.5190     0.7720     2.4980 h1         1 6AW       0.073700
     71 H33         -9.1430     3.5820     1.0010 hc         1 6AW       0.080700
     72 H34         -9.3830     5.1540    -0.8790 hc         1 6AW       0.040700
     73 H35         -7.7000     4.6070    -0.7490 hc         1 6AW       0.040700
     74 H36         -8.7530     3.9440    -2.0180 hc         1 6AW       0.040700
     75 H37        -11.3080     3.5620    -0.1730 hc         1 6AW       0.040700
     76 H38        -10.7300     2.3090    -1.2920 hc         1 6AW       0.040700
     77 H39        -10.9250     1.9390     0.4350 hc         1 6AW       0.040700
     78 H40         -6.2900    -0.7690    -0.9860 h4         1 6AW       0.159000
@<TRIPOS>BOND
     1     1     2 2   
     2     2     3 1   
     3     2    10 1   
     4     3     4 1   
     5     4     5 1   
     6     4    39 1   
     7     4    40 1   
     8     5     6 1   
     9     5     9 2   
    10     6     7 1   
    11     7     8 2   
    12     7    41 1   
    13     8     9 1   
    14     9    42 1   
    15    10    11 1   
    16    10    43 1   
    17    11    12 1   
    18    11    14 1   
    19    11    44 1   
    20    12    13 1   
    21    12    45 1   
    22    12    46 1   
    23    13    47 1   
    24    13    48 1   
    25    13    49 1   
    26    14    15 1   
    27    14    50 1   
    28    14    51 1   
    29    15    16 1   
    30    15    52 1   
    31    15    53 1   
    32    16    17 1   
    33    16    19 1   
    34    16    54 1   
    35    17    18 1   
    36    17    55 1   
    37    17    56 1   
    38    18    57 1   
    39    18    58 1   
    40    18    59 1   
    41    19    20 1   
    42    19    60 1   
    43    20    21 2   
    44    20    22 1   
    45    22    23 1   
    46    22    25 1   
    47    22    61 1   
    48    23    24 1   
    49    23    62 1   
    50    23    63 1   
    51    24    64 1   
    52    25    26 1   
    53    25    65 1   
    54    26    27 2   
    55    26    28 1   
    56    28    29 1   
    57    28    30 1   
    58    29    66 1   
    59    29    67 1   
    60    29    68 1   
    61    30    31 1   
    62    30    69 1   
    63    30    70 1   
    64    31    32 1   
    65    31    38 2   
    66    32    33 2   
    67    33    34 1   
    68    33    37 1   
    69    34    35 1   
    70    34    36 1   
    71    34    71 1   
    72    35    72 1   
    73    35    73 1   
    74    35    74 1   
    75    36    75 1   
    76    36    76 1   
    77    36    77 1   
    78    37    38 1   
    79    38    78 1   
@<TRIPOS>SUBSTRUCTURE
     1 6AW         1 TEMP              0 ****  ****    0 ROOT
