@<TRIPOS>MOLECULE
6AW
   78    79     1     0     0
SMALL
abcg2


@<TRIPOS>ATOM
      1 O31          6.1920    -1.7800    -1.3840 o          1 6AW      -0.544000
      2 C30          5.5730    -1.4270    -0.4010 c          1 6AW       0.641100
      3 O32          5.9900    -0.4470     0.4200 os         1 6AW      -0.470100
      4 C33          7.2120     0.2020     0.0800 c3         1 6AW       0.263900
      5 C34          7.3890     1.3320     1.0270 cc         1 6AW      -0.252300
      6 S38          6.2660     2.6300     1.1420 ss         1 6AW      -0.012400
      7 C37          7.2530     3.3510     2.3480 cc         1 6AW       0.414300
      8 N36          8.3260     2.6920     2.6420 nd         1 6AW      -0.631000
      9 C35          8.4070     1.5490     1.9020 cd         1 6AW       0.289900
     10 N29          4.4070    -1.9310     0.0290 ns         1 6AW      -0.499900
     11 C03          3.6840    -3.0100    -0.6190 c3         1 6AW       0.125700
     12 C02          3.5570    -4.2080     0.3230 c3         1 6AW      -0.091400
     13 C01          4.8930    -4.7950     0.7510 c3         1 6AW      -0.089100
     14 C04          2.3120    -2.5240    -1.0850 c3         1 6AW      -0.095400
     15 C05          2.3750    -1.4370    -2.1480 c3         1 6AW      -0.089400
     16 C06          1.0020    -0.9140    -2.5690 c3         1 6AW       0.109700
     17 C07          1.1060     0.0570    -3.7440 c3         1 6AW      -0.088400
     18 C08         -0.2430     0.5160    -4.2770 c3         1 6AW      -0.088100
     19 N09          0.3390    -0.2660    -1.4490 ns         1 6AW      -0.500900
     20 C10         -0.6830    -0.7710    -0.7500 c          1 6AW       0.605100
     21 O11         -1.2530    -1.8190    -1.0210 o          1 6AW      -0.608100
     22 C12         -1.0930     0.0750     0.4600 c3         1 6AW       0.051700
     23 C13          0.0160     0.0590     1.5100 c3         1 6AW       0.138600
     24 O14          0.3000    -1.2800     1.8330 oh         1 6AW      -0.657000
     25 N15         -2.3370    -0.4390     0.9610 ns         1 6AW      -0.511900
     26 C16         -3.1580     0.3060     1.7410 c          1 6AW       0.668100
     27 O17         -2.9120     1.4830     1.9940 o          1 6AW      -0.653100
     28 N18         -4.2510    -0.3430     2.2450 n          1 6AW      -0.408800
     29 C19         -4.5680    -1.7090     1.8880 c3         1 6AW       0.081300
     30 C20         -5.3120     0.4320     2.8490 c3         1 6AW       0.083700
     31 C21         -6.4430     0.6790     1.8980 cc         1 6AW       0.255300
     32 N28         -6.1960     1.3020     0.7040 nc         1 6AW      -0.629000
     33 C24         -7.2680     1.4340    -0.0050 cd         1 6AW       0.449700
     34 C25         -7.3080     2.0210    -1.3830 c3         1 6AW      -0.101000
     35 C27         -7.2100     0.9090    -2.4320 c3         1 6AW      -0.089100
     36 C26         -8.5430     2.8860    -1.6130 c3         1 6AW      -0.089100
     37 S23         -8.6900     0.7940     0.7560 ss         1 6AW      -0.051400
     38 C22         -7.7370     0.3230     2.1000 cd         1 6AW      -0.264000
     39 H1           8.0600    -0.4800     0.1760 h1         1 6AW       0.064200
     40 H2           7.1830     0.5580    -0.9510 h1         1 6AW       0.064200
     41 H3           6.9660     4.2840     2.8140 h5         1 6AW       0.054100
     42 H4           9.2470     0.8800     2.0300 h4         1 6AW       0.045100
     43 H5           4.0030    -1.5420     0.8680 hn         1 6AW       0.320500
     44 H6           4.2720    -3.3120    -1.4880 h1         1 6AW       0.081700
     45 H7           2.9770    -3.9110     1.2040 hc         1 6AW       0.046700
     46 H8           2.9650    -4.9740    -0.1840 hc         1 6AW       0.046700
     47 H9           4.7480    -5.6540     1.4070 hc         1 6AW       0.037033
     48 H10          5.4700    -5.1320    -0.1110 hc         1 6AW       0.037033
     49 H11          5.4980    -4.0670     1.2930 hc         1 6AW       0.037033
     50 H12          1.7620    -3.3840    -1.4780 hc         1 6AW       0.059200
     51 H13          1.7500    -2.1730    -0.2140 hc         1 6AW       0.059200
     52 H14          2.9760    -0.5930    -1.7930 hc         1 6AW       0.047700
     53 H15          2.8820    -1.8250    -3.0370 hc         1 6AW       0.047700
     54 H16          0.3740    -1.7570    -2.8670 h1         1 6AW       0.083700
     55 H17          1.7050     0.9230    -3.4410 hc         1 6AW       0.043700
     56 H18          1.6680    -0.4370    -4.5400 hc         1 6AW       0.043700
     57 H19         -0.8370    -0.3310    -4.6260 hc         1 6AW       0.037367
     58 H20         -0.8230     1.0370    -3.5150 hc         1 6AW       0.037367
     59 H21         -0.1170     1.1980    -5.1180 hc         1 6AW       0.037367
     60 H22          0.7310     0.6150    -1.1510 hn         1 6AW       0.308500
     61 H23         -1.2230     1.1110     0.1340 h1         1 6AW       0.087700
     62 H24          0.8960     0.5830     1.1170 h1         1 6AW       0.034200
     63 H25         -0.3260     0.6270     2.3820 h1         1 6AW       0.034200
     64 H26          0.9910    -1.2910     2.5010 ho         1 6AW       0.442000
     65 H27         -2.5560    -1.3890     0.7090 hn         1 6AW       0.345500
     66 H28         -3.7360    -2.3810     2.1060 h1         1 6AW       0.040033
     67 H29         -5.4070    -2.0450     2.4940 h1         1 6AW       0.040033
     68 H30         -4.8510    -1.8270     0.8380 h1         1 6AW       0.040033
     69 H31         -5.6840    -0.0970     3.7290 h1         1 6AW       0.073700
     70 H32         -4.9010     1.3790     3.1940 h1         1 6AW       0.073700
     71 H33         -6.4170     2.6490    -1.4630 hc         1 6AW       0.080700
     72 H34         -7.1730     1.3390    -3.4330 hc         1 6AW       0.040700
     73 H35         -6.3150     0.3050    -2.2910 hc         1 6AW       0.040700
     74 H36         -8.0780     0.2490    -2.3810 hc         1 6AW       0.040700
     75 H37         -8.4880     3.3620    -2.5920 hc         1 6AW       0.040700
     76 H38         -9.4600     2.2930    -1.5960 hc         1 6AW       0.040700
     77 H39         -8.6330     3.6720    -0.8630 hc         1 6AW       0.040700
     78 H40         -8.1660    -0.1740     2.9560 h4         1 6AW       0.159000
@<TRIPOS>BOND
     1     1     2 2   
     2     2     3 1   
     3     2    10 1   
     4     3     4 1   
     5     4     5 1   
     6     4    39 1   
     7     4    40 1   
     8     5     6 1   
     9     5     9 2   
    10     6     7 1   
    11     7     8 2   
    12     7    41 1   
    13     8     9 1   
    14     9    42 1   
    15    10    11 1   
    16    10    43 1   
    17    11    12 1   
    18    11    14 1   
    19    11    44 1   
    20    12    13 1   
    21    12    45 1   
    22    12    46 1   
    23    13    47 1   
    24    13    48 1   
    25    13    49 1   
    26    14    15 1   
    27    14    50 1   
    28    14    51 1   
    29    15    16 1   
    30    15    52 1   
    31    15    53 1   
    32    16    17 1   
    33    16    19 1   
    34    16    54 1   
    35    17    18 1   
    36    17    55 1   
    37    17    56 1   
    38    18    57 1   
    39    18    58 1   
    40    18    59 1   
    41    19    20 1   
    42    19    60 1   
    43    20    21 2   
    44    20    22 1   
    45    22    23 1   
    46    22    25 1   
    47    22    61 1   
    48    23    24 1   
    49    23    62 1   
    50    23    63 1   
    51    24    64 1   
    52    25    26 1   
    53    25    65 1   
    54    26    27 2   
    55    26    28 1   
    56    28    29 1   
    57    28    30 1   
    58    29    66 1   
    59    29    67 1   
    60    29    68 1   
    61    30    31 1   
    62    30    69 1   
    63    30    70 1   
    64    31    32 1   
    65    31    38 2   
    66    32    33 2   
    67    33    34 1   
    68    33    37 1   
    69    34    35 1   
    70    34    36 1   
    71    34    71 1   
    72    35    72 1   
    73    35    73 1   
    74    35    74 1   
    75    36    75 1   
    76    36    76 1   
    77    36    77 1   
    78    37    38 1   
    79    38    78 1   
@<TRIPOS>SUBSTRUCTURE
     1 6AW         1 TEMP              0 ****  ****    0 ROOT
