@<TRIPOS>MOLECULE
6AX
   22    23     1     0     0
SMALL
No Charge or Current Charge


@<TRIPOS>ATOM
      1 C10         -2.8620    -0.2170     0.0100 ca         1 6AX       0.124000
      2 C02          3.5620    -0.6380    -0.2350 cc         1 6AX       0.650900
      3 N03          3.7050     0.2860    -1.1540 nd         1 6AX      -0.431000
      4 N04          2.7680     1.2430    -0.8470 nd         1 6AX      -0.338000
      5 C05          2.1420     0.8020     0.2360 cc         1 6AX       0.406300
      6 C06          1.0180     1.4740     0.9750 c3         1 6AX      -0.048400
      7 C07         -0.3470     0.8840     0.6390 ca         1 6AX      -0.091300
      8 C08         -0.8610    -0.1900     1.3940 ca         1 6AX      -0.088000
      9 C09         -2.1170    -0.7380     1.0790 ca         1 6AX      -0.104000
     10 Cl          -4.4330    -0.9050    -0.3830 cl         1 6AX      -0.201000
     11 C12         -2.3550     0.8500    -0.7480 ca         1 6AX      -0.104000
     12 C13         -1.0990     1.4000    -0.4350 ca         1 6AX      -0.088000
     13 O14          2.6050    -0.3970     0.6740 os         1 6AX      -0.307000
     14 H1           4.7650    -2.0490    -0.9920 hn         1 6AX       0.489500
     15 H2           3.8730    -2.5180     0.4060 hn         1 6AX       0.489500
     16 H3           1.2070     1.3990     2.0520 hc         1 6AX       0.081700
     17 H4           1.0300     2.5470     0.7490 hc         1 6AX       0.081700
     18 H5          -0.2880    -0.6010     2.2220 ha         1 6AX       0.122500
     19 H6          -2.5120    -1.5660     1.6630 ha         1 6AX       0.131500
     20 H7          -2.9330     1.2510    -1.5770 ha         1 6AX       0.131500
     21 H8          -0.7110     2.2250    -1.0290 ha         1 6AX       0.122500
     22 N01          4.2730    -1.7700    -0.1500 nv         1 6AX      -1.031900
@<TRIPOS>BOND
     1     1     9 ar  
     2     1    10 1   
     3     1    11 ar  
     4     2     3 2   
     5     2    13 1   
     6     2    22 1   
     7     3     4 1   
     8     4     5 2   
     9     5     6 1   
    10     5    13 1   
    11     6     7 1   
    12     6    16 1   
    13     6    17 1   
    14     7     8 ar  
    15     7    12 ar  
    16     8     9 ar  
    17     8    18 1   
    18     9    19 1   
    19    11    12 ar  
    20    11    20 1   
    21    12    21 1   
    22    14    22 1   
    23    15    22 1   
@<TRIPOS>SUBSTRUCTURE
     1 6AX         1 TEMP              0 ****  ****    0 ROOT
