@<TRIPOS>MOLECULE
6AX
   22    23     1     0     0
SMALL
bcc


@<TRIPOS>ATOM
      1 C10         -2.7090    -0.3210     0.0060 ca         1 6AX       0.032400
      2 C02          3.4280    -0.5900    -0.3490 cc         1 6AX       0.695300
      3 N03          3.8220     0.5080    -0.9080 nd         1 6AX      -0.431000
      4 N04          2.9710     1.4890    -0.4430 nd         1 6AX      -0.338000
      5 C05          2.1360     0.9310     0.3450 cc         1 6AX       0.450700
      6 C06          1.0030     1.5220     1.0950 c3         1 6AX      -0.048400
      7 C07         -0.3110     0.8810     0.7220 ca         1 6AX      -0.091300
      8 C08         -0.9400    -0.0090     1.5840 ca         1 6AX      -0.106000
      9 C09         -2.1400    -0.6140     1.2340 ca         1 6AX      -0.122000
     10 CL          -4.2080    -1.0690    -0.4390 cl         1 6AX      -0.109400
     11 C12         -2.1010     0.5640    -0.8720 ca         1 6AX      -0.122000
     12 C13         -0.9040     1.1590    -0.5060 ca         1 6AX      -0.106000
     13 O14          2.3710    -0.4010     0.4530 os         1 6AX      -0.395800
     14 H1           4.6240    -1.9600    -1.1720 hn         1 6AX       0.434300
     15 H2           3.3530    -2.6050    -0.2640 hn         1 6AX       0.434300
     16 H3           1.1800     1.4190     2.1690 hc         1 6AX       0.081700
     17 H4           0.9900     2.5900     0.8750 hc         1 6AX       0.081700
     18 H5          -0.4970    -0.2390     2.5450 ha         1 6AX       0.140500
     19 H6          -2.6210    -1.3040     1.9140 ha         1 6AX       0.149500
     20 H7          -2.5540     0.7910    -1.8280 ha         1 6AX       0.149500
     21 H8          -0.4290     1.8510    -1.1910 ha         1 6AX       0.140500
     22 N01          3.9660    -1.8210    -0.4210 nv         1 6AX      -0.921500
@<TRIPOS>BOND
     1     1     9 ar  
     2     1    10 1   
     3     1    11 ar  
     4     2     3 2   
     5     2    13 1   
     6     2    22 1   
     7     3     4 1   
     8     4     5 2   
     9     5     6 1   
    10     5    13 1   
    11     6     7 1   
    12     6    16 1   
    13     6    17 1   
    14     7     8 ar  
    15     7    12 ar  
    16     8     9 ar  
    17     8    18 1   
    18     9    19 1   
    19    11    12 ar  
    20    11    20 1   
    21    12    21 1   
    22    14    22 1   
    23    15    22 1   
@<TRIPOS>SUBSTRUCTURE
     1 6AX         1 TEMP              0 ****  ****    0 ROOT
