@<TRIPOS>MOLECULE
6AY
   31    33     1     0     0
SMALL
No Charge or Current Charge


@<TRIPOS>ATOM
      1 C10         -2.3680     0.1860    -0.9600 ca         1 6AY      -0.086000
      2 C11         -3.2540     0.8070    -0.0620 ca         1 6AY      -0.107500
      3 C12         -3.4940     0.2350     1.1970 ca         1 6AY       0.127000
      4 C14         -2.8500    -0.9580     1.5620 ca         1 6AY      -0.107500
      5 C15         -1.9640    -1.5820     0.6650 ca         1 6AY      -0.086000
      6 C17          2.3510    -1.5900     1.3750 ca         1 6AY       0.194900
      7 C19          3.3290     0.2320     0.4080 ca         1 6AY       0.156500
      8 N02          4.1320     1.3200     0.1060 na         1 6AY      -0.018100
      9 N03          3.7580     1.9430    -1.0890 nc         1 6AY      -0.524100
     10 C04          2.7130     1.2210    -1.5200 cd         1 6AY       0.386800
     11 C05          2.4250     0.1490    -0.6060 ca         1 6AY      -0.395900
     12 C06          1.4570    -0.8460    -0.6060 ca         1 6AY       0.459900
     13 N07          0.5240    -0.9500    -1.6230 nu         1 6AY      -0.916100
     14 C09         -1.7160    -1.0120    -0.6010 ca         1 6AY      -0.120300
     15 Cl          -4.6010     1.0140     2.3200 cl         1 6AY      -0.202000
     16 N16          1.4170    -1.7380     0.4020 nb         1 6AY      -0.315000
     17 N18          3.3170    -0.6410     1.4330 nb         1 6AY      -0.229000
     18 H1          -2.1850     0.6360    -1.9330 ha         1 6AY       0.125000
     19 H2          -3.7540     1.7310    -0.3410 ha         1 6AY       0.131000
     20 H3          -3.0370    -1.3990     2.5380 ha         1 6AY       0.131000
     21 H4          -1.4660    -2.5040     0.9570 ha         1 6AY       0.125000
     22 H5           2.3210    -2.3080     2.1930 h5         1 6AY       0.046100
     23 H6           4.8770     2.0410     1.9420 h1         1 6AY       0.060033
     24 H7           5.9880     0.9660     1.0420 h1         1 6AY       0.060033
     25 H8           5.7320     2.6480     0.4930 h1         1 6AY       0.060033
     26 H9           2.2240     1.4990    -2.4460 h4         1 6AY       0.046800
     27 H10          0.6210    -0.2600    -2.3660 hn         1 6AY       0.498000
     28 H11         -1.2150    -1.7010    -2.5720 h1         1 6AY       0.071200
     29 H12         -0.5860    -2.7290    -1.2790 h1         1 6AY       0.071200
     30 C08         -0.7520    -1.6830    -1.5740 c3         1 6AY       0.276100
     31 C01          5.2520     1.7730     0.9470 c3         1 6AY       0.080900
@<TRIPOS>BOND
     1     1     2 ar  
     2     1    14 ar  
     3     1    18 1   
     4     2     3 ar  
     5     2    19 1   
     6     3     4 ar  
     7     3    15 1   
     8     4     5 ar  
     9     4    20 1   
    10     5    14 ar  
    11     5    21 1   
    12     6    16 ar  
    13     6    17 ar  
    14     6    22 1   
    15     7     8 1   
    16     7    11 ar  
    17     7    17 ar  
    18     8     9 1   
    19     8    31 1   
    20     9    10 2   
    21    10    11 1   
    22    10    26 1   
    23    11    12 ar  
    24    12    13 1   
    25    12    16 ar  
    26    13    27 1   
    27    13    30 1   
    28    14    30 1   
    29    23    31 1   
    30    24    31 1   
    31    25    31 1   
    32    28    30 1   
    33    29    30 1   
@<TRIPOS>SUBSTRUCTURE
     1 6AY         1 TEMP              0 ****  ****    0 ROOT
