@<TRIPOS>MOLECULE
6AY
   31    33     1     0     0
SMALL
abcg2


@<TRIPOS>ATOM
      1 C10         -3.0510    -0.4200    -1.1740 ca         1 6AY      -0.086000
      2 C11         -4.1210     0.0250    -0.4080 ca         1 6AY      -0.107500
      3 C12         -4.0070     0.0210     0.9710 ca         1 6AY       0.127000
      4 C14         -2.8480    -0.4220     1.5930 ca         1 6AY      -0.107500
      5 C15         -1.7920    -0.8640     0.8130 ca         1 6AY      -0.086000
      6 C17          2.6250    -1.7580     1.0390 ca         1 6AY       0.194900
      7 C19          3.5660     0.1110     0.3560 ca         1 6AY       0.156500
      8 N02          4.4470     1.1180     0.2280 na         1 6AY      -0.018100
      9 N03          4.0310     2.0210    -0.6750 nc         1 6AY      -0.524100
     10 C04          2.8810     1.6010    -1.1410 cd         1 6AY       0.386800
     11 C05          2.5180     0.3820    -0.5260 ca         1 6AY      -0.395900
     12 C06          1.4700    -0.5680    -0.5510 ca         1 6AY       0.459900
     13 N07          0.4160    -0.4300    -1.3600 nu         1 6AY      -0.916100
     14 C09         -1.8780    -0.8670    -0.5780 ca         1 6AY      -0.120300
     15 CL          -5.3340     0.5750     1.9400 cl         1 6AY      -0.202000
     16 N16          1.5560    -1.6290     0.2510 nb         1 6AY      -0.315000
     17 N18          3.6600    -0.9550     1.1610 nb         1 6AY      -0.229000
     18 H1          -3.1400    -0.4140    -2.2530 ha         1 6AY       0.125000
     19 H2          -5.0280     0.3710    -0.8860 ha         1 6AY       0.131000
     20 H3          -2.7700    -0.4270     2.6720 ha         1 6AY       0.131000
     21 H4          -0.8910    -1.2190     1.2970 ha         1 6AY       0.125000
     22 H5           2.6330    -2.6470     1.6630 h5         1 6AY       0.046100
     23 H6           5.6020     2.1620     1.6240 h1         1 6AY       0.060033
     24 H7           5.8860     0.4170     1.5290 h1         1 6AY       0.060033
     25 H8           6.4980     1.4790     0.2520 h1         1 6AY       0.060033
     26 H9           2.3560     2.1730    -1.8910 h4         1 6AY       0.046800
     27 H10          0.3520     0.4140    -1.9060 hn         1 6AY       0.498000
     28 H11         -1.0220    -1.4100    -2.4620 h1         1 6AY       0.071200
     29 H12         -0.3840    -2.3200    -1.1040 h1         1 6AY       0.071200
     30 C08         -0.7150    -1.3320    -1.4190 c3         1 6AY       0.276100
     31 C01          5.6800     1.3120     0.9490 c3         1 6AY       0.080900
@<TRIPOS>BOND
     1     1     2 ar  
     2     1    14 ar  
     3     1    18 1   
     4     2     3 ar  
     5     2    19 1   
     6     3     4 ar  
     7     3    15 1   
     8     4     5 ar  
     9     4    20 1   
    10     5    14 ar  
    11     5    21 1   
    12     6    16 ar  
    13     6    17 ar  
    14     6    22 1   
    15     7     8 1   
    16     7    11 ar  
    17     7    17 ar  
    18     8     9 1   
    19     8    31 1   
    20     9    10 2   
    21    10    11 1   
    22    10    26 1   
    23    11    12 ar  
    24    12    13 1   
    25    12    16 ar  
    26    13    27 1   
    27    13    30 1   
    28    14    30 1   
    29    23    31 1   
    30    24    31 1   
    31    25    31 1   
    32    28    30 1   
    33    29    30 1   
@<TRIPOS>SUBSTRUCTURE
     1 6AY         1 TEMP              0 ****  ****    0 ROOT
