@<TRIPOS>MOLECULE
6B0
   16    16     1     0     0
SMALL
No Charge or Current Charge


@<TRIPOS>ATOM
      1 O01          3.1590     0.8550    -0.9630 oh         1 6B0      -0.660000
      2 C02          2.4940     0.7160     0.2990 c3         1 6B0       0.207900
      3 C03          1.2900    -0.2120     0.1640 ca         1 6B0      -0.069300
      4 C04          1.4510    -1.5860     0.4410 ca         1 6B0      -0.077000
      5 C05          0.3650    -2.4710     0.3290 ca         1 6B0      -0.104000
      6 C06         -0.8940    -1.9900    -0.0620 ca         1 6B0      -0.096000
      7 C07         -1.0690    -0.6250    -0.3440 ca         1 6B0       0.118000
      8 Cl1         -2.6680    -0.0600    -0.8360 cl         1 6B0      -0.175000
      9 C09          0.0190     0.2690    -0.2330 ca         1 6B0       0.115000
     10 Cl2         -0.2210     1.9860    -0.5960 cl         1 6B0      -0.183000
     11 H1           3.9170     1.4650    -0.8190 ho         1 6B0       0.451000
     12 H2           3.1850     0.3000     1.0450 h1         1 6B0       0.038200
     13 H3           2.1730     1.6950     0.6780 h1         1 6B0       0.038200
     14 H4           2.4240    -1.9700     0.7430 ha         1 6B0       0.141000
     15 H5           0.5010    -3.5290     0.5460 ha         1 6B0       0.122000
     16 H6          -1.7350    -2.6740    -0.1500 ha         1 6B0       0.132000
@<TRIPOS>BOND
     1     1     2 1   
     2     1    11 1   
     3     2     3 1   
     4     2    12 1   
     5     2    13 1   
     6     3     4 ar  
     7     3     9 ar  
     8     4     5 ar  
     9     4    14 1   
    10     5     6 ar  
    11     5    15 1   
    12     6     7 ar  
    13     6    16 1   
    14     7     8 1   
    15     7     9 ar  
    16     9    10 1   
@<TRIPOS>SUBSTRUCTURE
     1 6B0         1 TEMP              0 ****  ****    0 ROOT
