@<TRIPOS>MOLECULE
6B0
   16    16     1     0     0
SMALL
abcg2


@<TRIPOS>ATOM
      1 O01          3.6160     0.1680     0.0310 oh         1 6B0      -0.660000
      2 C02          2.3880     0.8400     0.0540 c3         1 6B0       0.207900
      3 C03          1.2620    -0.1600     0.0250 ca         1 6B0      -0.069300
      4 C04          1.5000    -1.5290    -0.0010 ca         1 6B0      -0.077000
      5 C05          0.4480    -2.4330    -0.0290 ca         1 6B0      -0.104000
      6 C06         -0.8630    -1.9910    -0.0320 ca         1 6B0      -0.096000
      7 C07         -1.1150    -0.6280    -0.0050 ca         1 6B0       0.118000
      8 CL1         -2.7460    -0.0710    -0.0080 cl         1 6B0      -0.175000
      9 C09         -0.0620     0.2780     0.0240 ca         1 6B0       0.115000
     10 CL2         -0.3930     1.9730     0.0570 cl         1 6B0      -0.183000
     11 H1           4.3160     0.8250     0.0830 ho         1 6B0       0.451000
     12 H2           2.2810     1.4640     0.9510 h1         1 6B0       0.038200
     13 H3           2.2780     1.5150    -0.8050 h1         1 6B0       0.038200
     14 H4           2.5160    -1.8950     0.0000 ha         1 6B0       0.141000
     15 H5           0.6500    -3.4960    -0.0500 ha         1 6B0       0.122000
     16 H6          -1.6860    -2.6910    -0.0540 ha         1 6B0       0.132000
@<TRIPOS>BOND
     1     1     2 1   
     2     1    11 1   
     3     2     3 1   
     4     2    12 1   
     5     2    13 1   
     6     3     4 ar  
     7     3     9 ar  
     8     4     5 ar  
     9     4    14 1   
    10     5     6 ar  
    11     5    15 1   
    12     6     7 ar  
    13     6    16 1   
    14     7     8 1   
    15     7     9 ar  
    16     9    10 1   
@<TRIPOS>SUBSTRUCTURE
     1 6B0         1 TEMP              0 ****  ****    0 ROOT
