@<TRIPOS>MOLECULE
6B1
   19    20     1     0     0
SMALL
bcc


@<TRIPOS>ATOM
      1 C12          1.4350    -0.7610    -0.0090 ca         1 6B1       0.034400
      2 C11          0.1970    -1.3450    -0.1010 ca         1 6B1      -0.112000
      3 C10         -0.9080    -0.5260    -0.1040 ca         1 6B1      -0.090200
      4 CL2          2.8060    -1.8190     0.0230 cl         1 6B1      -0.083400
      5 C02          1.5660     0.6250     0.0790 ca         1 6B1       0.010400
      6 CL1          3.1480     1.2740     0.2470 cl         1 6B1      -0.083400
      7 C04         -0.7860     0.8790    -0.0610 ca         1 6B1       0.097400
      8 C03          0.4760     1.4810     0.0310 ca         1 6B1      -0.054000
      9 N09         -2.2720    -0.8020    -0.1320 na         1 6B1      -0.244300
     10 C06         -2.8880     0.3850    -0.0930 cc         1 6B1       0.393800
     11 N05         -2.0590     1.4010    -0.0900 nd         1 6B1      -0.593100
     12 C07         -4.3550     0.4770    -0.1430 c3         1 6B1       0.107100
     13 O08         -4.9150    -0.7880     0.0320 oh         1 6B1      -0.592800
     14 H1           0.1020    -2.4250    -0.1450 ha         1 6B1       0.151000
     15 H2           0.6000     2.5550     0.1030 ha         1 6B1       0.169000
     16 H3          -2.7310    -1.6930    -0.1500 hn         1 6B1       0.325700
     17 H5          -4.6820     1.2140     0.5860 h1         1 6B1       0.075700
     18 H6          -4.6620     0.8900    -1.1100 h1         1 6B1       0.075700
     19 H7          -5.1430    -0.8720     0.9750 ho         1 6B1       0.414000
@<TRIPOS>BOND
     1     1     2 ar  
     2     1     4 1   
     3     1     5 ar  
     4     2     3 ar  
     5     2    14 1   
     6     3     7 ar  
     7     3     9 1   
     8     5     6 1   
     9     5     8 ar  
    10     7     8 ar  
    11     7    11 1   
    12     8    15 1   
    13     9    10 1   
    14     9    16 1   
    15    10    11 2   
    16    10    12 1   
    17    12    13 1   
    18    12    17 1   
    19    12    18 1   
    20    13    19 1   
@<TRIPOS>SUBSTRUCTURE
     1 6B1         1 TEMP              0 ****  ****    0 ROOT
