@<TRIPOS>MOLECULE
6B1
   19    20     1     0     0
SMALL
No Charge or Current Charge


@<TRIPOS>ATOM
      1 C12          1.4950    -0.7740    -0.0800 ca         1 6B1       0.126000
      2 C11          0.2400    -1.3760    -0.3100 ca         1 6B1      -0.094000
      3 C10         -0.8950    -0.5610    -0.2170 ca         1 6B1      -0.090200
      4 Cl2          2.9490    -1.7670    -0.1890 cl         1 6B1      -0.175000
      5 C02          1.5750     0.6100     0.2340 ca         1 6B1       0.102000
      6 Cl1          3.1350     1.3820     0.5260 cl         1 6B1      -0.175000
      7 C04         -0.8320     0.7680     0.0840 ca         1 6B1       0.097400
      8 C03          0.4020     1.3910     0.3170 ca         1 6B1      -0.036000
      9 N09         -2.2110    -0.8640    -0.3840 na         1 6B1      -0.294600
     10 C06         -2.9290     0.3140    -0.1810 cc         1 6B1       0.393800
     11 N05         -2.1020     1.3400     0.1140 nd         1 6B1      -0.593100
     12 C07         -4.4430     0.4060    -0.2670 c3         1 6B1       0.130300
     13 O08         -5.1170    -0.4340     0.7010 oh         1 6B1      -0.655000
     14 H1           0.1610    -2.4340    -0.5510 ha         1 6B1       0.133000
     15 H2           0.4520     2.4490     0.5570 ha         1 6B1       0.151000
     16 H3          -2.6130    -1.7680    -0.5970 hn         1 6B1       0.376000
     17 H5          -4.7340     1.4560    -0.1300 h1         1 6B1       0.075700
     18 H6          -4.7410     0.1250    -1.2860 h1         1 6B1       0.075700
     19 H7          -4.8610    -0.1120     1.5960 ho         1 6B1       0.453000
@<TRIPOS>BOND
     1     1     2 ar  
     2     1     4 1   
     3     1     5 ar  
     4     2     3 ar  
     5     2    14 1   
     6     3     7 ar  
     7     3     9 1   
     8     5     6 1   
     9     5     8 ar  
    10     7     8 ar  
    11     7    11 1   
    12     8    15 1   
    13     9    10 1   
    14     9    16 1   
    15    10    11 2   
    16    10    12 1   
    17    12    13 1   
    18    12    17 1   
    19    12    18 1   
    20    13    19 1   
@<TRIPOS>SUBSTRUCTURE
     1 6B1         1 TEMP              0 ****  ****    0 ROOT
