@<TRIPOS>MOLECULE
6B2
   65    68     1     0     0
SMALL
abcg2


@<TRIPOS>ATOM
      1 CAK         -5.9820     0.1950     2.6160 c3         1 6B2      -0.061900
      2 CAJ         -5.4700     0.1700     1.2120 cc         1 6B2       0.022600
      3 CAI         -6.1800     0.7090     0.2010 cd         1 6B2      -0.297200
      4 CAH         -5.7340     0.7130    -1.1770 c          1 6B2       0.566200
      5 OAL         -6.3960     1.2180    -2.0760 o          1 6B2      -0.552000
      6 NAG         -4.5150     0.1130    -1.4250 n          1 6B2      -0.279000
      7 CAM         -4.0150     0.0970    -2.7910 c3         1 6B2       0.067300
      8 CAD         -3.7480    -0.4520    -0.4250 ca         1 6B2       0.112600
      9 CAC         -2.5110    -1.0340    -0.7220 ca         1 6B2      -0.145000
     10 CAE         -4.1970    -0.4370     0.9110 ca         1 6B2      -0.126800
     11 CAF         -3.3900    -1.0060     1.9020 ca         1 6B2      -0.049000
     12 CAA         -2.1730    -1.5760     1.6020 ca         1 6B2      -0.155000
     13 CAB         -1.7370    -1.5820     0.2800 ca         1 6B2       0.001000
     14 NAN         -0.4550    -2.1200    -0.0330 n          1 6B2      -0.255400
     15 CAO         -0.4040    -3.3630    -0.5940 c          1 6B2       0.570000
     16 OAT         -1.4210    -3.9420    -0.9330 o          1 6B2      -0.532000
     17 CAP          0.9570    -3.9750    -0.8030 c6         1 6B2      -0.156400
     18 CAQ          2.0150    -3.4670     0.1580 c6         1 6B2      -0.096400
     19 CAR          2.0280    -1.9530     0.1050 c6         1 6B2       0.236500
     20 NBA          3.0450    -1.3540     0.9430 n7         1 6B2      -0.932300
     21 SBC          4.4680    -0.7870     0.3440 s6         1 6B2       1.200100
     22 OBE          5.4060    -0.8160     1.4590 o          1 6B2      -0.539000
     23 OBF          4.8120    -1.4950    -0.8850 o          1 6B2      -0.539000
     24 CBD          4.0740     0.8990    -0.0990 c3         1 6B2      -0.308400
     25 CBG          5.1850     1.6530    -0.8270 c3         1 6B2      -0.026700
     26 CBI          4.5940     2.9680    -1.3340 c3         1 6B2      -0.093100
     27 CBH          6.4080     1.9140     0.0460 c3         1 6B2      -0.093100
     28 CAS          0.6710    -1.3760     0.5370 c6         1 6B2       0.171000
     29 CAU          0.6070     0.0830     0.1600 ca         1 6B2      -0.101300
     30 CAV          0.7580     1.0640     1.1280 ca         1 6B2      -0.088500
     31 CAW          0.8210     2.4070     0.7820 ca         1 6B2      -0.106000
     32 CAX          0.7260     2.7610    -0.5530 ca         1 6B2       0.126000
     33 CL           0.8330     4.4310    -1.0030 cl         1 6B2      -0.193000
     34 CAY          0.5520     1.8010    -1.5390 ca         1 6B2      -0.106000
     35 CAZ          0.4940     0.4660    -1.1740 ca         1 6B2      -0.088500
     36 H1          -6.9360     0.7130     2.6720 hc         1 6B2       0.051700
     37 H2          -6.1230    -0.8170     3.0000 hc         1 6B2       0.051700
     38 H3          -5.2820     0.6990     3.2840 hc         1 6B2       0.051700
     39 H4          -7.1380     1.1770     0.3870 ha         1 6B2       0.208000
     40 H5          -4.7410     0.5720    -3.4380 h1         1 6B2       0.056367
     41 H6          -3.0740     0.6430    -2.8620 h1         1 6B2       0.056367
     42 H7          -3.8600    -0.9250    -3.1340 h1         1 6B2       0.056367
     43 H8          -2.1330    -1.0580    -1.7320 ha         1 6B2       0.130000
     44 H9          -3.7280    -1.0030     2.9290 ha         1 6B2       0.118000
     45 H10         -1.5680    -2.0140     2.3840 ha         1 6B2       0.120000
     46 H11          0.8440    -5.0560    -0.7330 hc         1 6B2       0.082700
     47 H12          1.2560    -3.7620    -1.8350 hc         1 6B2       0.082700
     48 H13          1.8070    -3.8060     1.1780 hc         1 6B2       0.064200
     49 H14          2.9950    -3.8560    -0.1210 hc         1 6B2       0.064200
     50 H15          2.2190    -1.6500    -0.9290 h1         1 6B2       0.078700
     51 H16          3.1090    -1.6830     1.8990 hn         1 6B2       0.503000
     52 H17          3.1900     0.8310    -0.7370 h1         1 6B2       0.097200
     53 H18          3.7780     1.4010     0.8250 h1         1 6B2       0.097200
     54 H19          5.4880     1.0630    -1.6970 hc         1 6B2       0.063700
     55 H20          4.2200     3.5760    -0.5080 hc         1 6B2       0.040867
     56 H21          5.3530     3.5500    -1.8580 hc         1 6B2       0.040867
     57 H22          3.7670     2.7970    -2.0240 hc         1 6B2       0.040867
     58 H23          7.1280     2.5290    -0.4940 hc         1 6B2       0.040867
     59 H24          6.1290     2.4510     0.9550 hc         1 6B2       0.040867
     60 H25          6.9140     0.9970     0.3420 hc         1 6B2       0.040867
     61 H26          0.6160    -1.4550     1.6300 h1         1 6B2       0.057700
     62 H27          0.8420     0.7860     2.1710 ha         1 6B2       0.121500
     63 H28          0.9470     3.1630     1.5450 ha         1 6B2       0.134000
     64 H29          0.4730     2.0860    -2.5790 ha         1 6B2       0.134000
     65 H30          0.3760    -0.2800    -1.9500 ha         1 6B2       0.121500
@<TRIPOS>BOND
     1     1     2 1   
     2     1    36 1   
     3     1    37 1   
     4     1    38 1   
     5     2     3 2   
     6     2    10 1   
     7     3     4 1   
     8     3    39 1   
     9     4     5 2   
    10     4     6 1   
    11     6     7 1   
    12     6     8 1   
    13     7    40 1   
    14     7    41 1   
    15     7    42 1   
    16     8     9 ar  
    17     8    10 ar  
    18     9    13 ar  
    19     9    43 1   
    20    10    11 ar  
    21    11    12 ar  
    22    11    44 1   
    23    12    13 ar  
    24    12    45 1   
    25    13    14 1   
    26    14    15 1   
    27    14    28 1   
    28    15    16 2   
    29    15    17 1   
    30    17    18 1   
    31    17    46 1   
    32    17    47 1   
    33    18    19 1   
    34    18    48 1   
    35    18    49 1   
    36    19    20 1   
    37    19    28 1   
    38    19    50 1   
    39    20    21 1   
    40    20    51 1   
    41    21    22 2   
    42    21    23 2   
    43    21    24 1   
    44    24    25 1   
    45    24    52 1   
    46    24    53 1   
    47    25    26 1   
    48    25    27 1   
    49    25    54 1   
    50    26    55 1   
    51    26    56 1   
    52    26    57 1   
    53    27    58 1   
    54    27    59 1   
    55    27    60 1   
    56    28    29 1   
    57    28    61 1   
    58    29    30 ar  
    59    29    35 ar  
    60    30    31 ar  
    61    30    62 1   
    62    31    32 ar  
    63    31    63 1   
    64    32    33 1   
    65    32    34 ar  
    66    34    35 ar  
    67    34    64 1   
    68    35    65 1   
@<TRIPOS>SUBSTRUCTURE
     1 6B2         1 TEMP              0 ****  ****    0 ROOT
