@<TRIPOS>MOLECULE
6B2
   65    68     1     0     0
SMALL
No Charge or Current Charge


@<TRIPOS>ATOM
      1 CAK         -5.9580     0.8810     2.4800 c3         1 6B2      -0.061900
      2 CAJ         -5.6000     0.3840     1.1000 cc         1 6B2       0.022600
      3 CAI         -6.5260     0.3770     0.0780 cd         1 6B2      -0.297200
      4 CAH         -6.2820    -0.0530    -1.3060 c          1 6B2       0.566200
      5 OAL         -7.1730    -0.0210    -2.1460 o          1 6B2      -0.552000
      6 NAG         -4.9700    -0.4790    -1.5880 n          1 6B2      -0.279000
      7 CAM         -4.6100    -0.7810    -2.9990 c3         1 6B2       0.067300
      8 CAD         -3.9560    -0.5430    -0.5660 ca         1 6B2       0.112600
      9 CAC         -2.6910    -1.1230    -0.8290 ca         1 6B2      -0.145000
     10 CAE         -4.2710    -0.1420     0.7530 ca         1 6B2      -0.126800
     11 CAF         -3.2920    -0.2890     1.7600 ca         1 6B2      -0.049000
     12 CAA         -2.0290    -0.8220     1.4700 ca         1 6B2      -0.155000
     13 CAB         -1.6890    -1.1920     0.1570 ca         1 6B2       0.001000
     14 NAN         -0.4510    -1.8970    -0.1000 n          1 6B2      -0.255400
     15 CAO         -0.4290    -3.1570    -0.7600 c          1 6B2       0.570000
     16 OAT         -1.4550    -3.7780    -1.0100 o          1 6B2      -0.532000
     17 CAP          0.9210    -3.7700    -1.1520 c6         1 6B2      -0.156400
     18 CAQ          2.0430    -3.4540    -0.1460 c6         1 6B2      -0.096400
     19 CAR          2.1480    -1.9320     0.0450 c6         1 6B2       0.236500
     20 NBA          3.2480    -1.6220     0.9880 n7         1 6B2      -0.932300
     21 SBC          4.6710    -0.9890     0.4110 s6         1 6B2       1.200100
     22 OBE          5.5490    -0.8980     1.5770 o          1 6B2      -0.539000
     23 OBF          5.0460    -1.7980    -0.7500 o          1 6B2      -0.539000
     24 CBD          4.1780     0.6690    -0.0950 c3         1 6B2      -0.308400
     25 CBG          5.2700     1.5220    -0.7940 c3         1 6B2      -0.026700
     26 CBI          4.6240     2.7680    -1.4390 c3         1 6B2      -0.093100
     27 CBH          6.4190     1.9350     0.1560 c3         1 6B2      -0.093100
     28 CAS          0.7890    -1.3290     0.5350 c6         1 6B2       0.171000
     29 CAU          0.8280     0.2060     0.4160 ca         1 6B2      -0.101300
     30 CAV          1.0580     0.9980     1.5590 ca         1 6B2      -0.088500
     31 CAW          1.1320     2.3980     1.4470 ca         1 6B2      -0.106000
     32 CAX          0.9760     3.0110     0.1940 ca         1 6B2       0.126000
     33 Cl           1.0830     4.7610     0.0540 cl         1 6B2      -0.193000
     34 CAY          0.7380     2.2310    -0.9470 ca         1 6B2      -0.106000
     35 CAZ          0.6630     0.8310    -0.8390 ca         1 6B2      -0.088500
     36 H1          -6.9710     1.3000     2.5080 hc         1 6B2       0.051700
     37 H2          -5.9170     0.0660     3.2120 hc         1 6B2       0.051700
     38 H3          -5.2680     1.6690     2.8040 hc         1 6B2       0.051700
     39 H4          -7.5400     0.7200     0.2440 ha         1 6B2       0.208000
     40 H5          -5.3980    -0.4760    -3.6980 h1         1 6B2       0.056367
     41 H6          -3.6950    -0.2400    -3.2720 h1         1 6B2       0.056367
     42 H7          -4.4400    -1.8590    -3.1120 h1         1 6B2       0.056367
     43 H8          -2.4540    -1.4940    -1.8200 ha         1 6B2       0.130000
     44 H9          -3.5040    -0.0130     2.7900 ha         1 6B2       0.118000
     45 H10         -1.3200    -0.9520     2.2830 ha         1 6B2       0.120000
     46 H11          0.8060    -4.8450    -1.3450 hc         1 6B2       0.082700
     47 H12          1.2010    -3.2950    -2.1030 hc         1 6B2       0.082700
     48 H13          1.8320    -3.9470     0.8140 hc         1 6B2       0.064200
     49 H14          2.9950    -3.8610    -0.5150 hc         1 6B2       0.064200
     50 H15          2.3610    -1.4890    -0.9410 h1         1 6B2       0.078700
     51 H16          3.5970    -2.4810     1.4090 hn         1 6B2       0.503000
     52 H17          3.3460     0.5200    -0.7870 h1         1 6B2       0.097200
     53 H18          3.8070     1.1680     0.8050 h1         1 6B2       0.097200
     54 H19          5.7050     0.9270    -1.6080 hc         1 6B2       0.063700
     55 H20          4.1660     3.4090    -0.6770 hc         1 6B2       0.040867
     56 H21          5.3720     3.3590    -1.9820 hc         1 6B2       0.040867
     57 H22          3.8440     2.4760    -2.1530 hc         1 6B2       0.040867
     58 H23          7.1240     2.6000    -0.3580 hc         1 6B2       0.040867
     59 H24          6.0290     2.4660     1.0330 hc         1 6B2       0.040867
     60 H25          6.9860     1.0640     0.5010 hc         1 6B2       0.040867
     61 H26          0.7210    -1.5810     1.6020 h1         1 6B2       0.057700
     62 H27          1.1950     0.5300     2.5310 ha         1 6B2       0.121500
     63 H28          1.3170     3.0060     2.3290 ha         1 6B2       0.134000
     64 H29          0.6170     2.7090    -1.9160 ha         1 6B2       0.134000
     65 H30          0.4840     0.2340    -1.7300 ha         1 6B2       0.121500
@<TRIPOS>BOND
     1     1     2 1   
     2     1    36 1   
     3     1    37 1   
     4     1    38 1   
     5     2     3 2   
     6     2    10 1   
     7     3     4 1   
     8     3    39 1   
     9     4     5 2   
    10     4     6 1   
    11     6     7 1   
    12     6     8 1   
    13     7    40 1   
    14     7    41 1   
    15     7    42 1   
    16     8     9 ar  
    17     8    10 ar  
    18     9    13 ar  
    19     9    43 1   
    20    10    11 ar  
    21    11    12 ar  
    22    11    44 1   
    23    12    13 ar  
    24    12    45 1   
    25    13    14 1   
    26    14    15 1   
    27    14    28 1   
    28    15    16 2   
    29    15    17 1   
    30    17    18 1   
    31    17    46 1   
    32    17    47 1   
    33    18    19 1   
    34    18    48 1   
    35    18    49 1   
    36    19    20 1   
    37    19    28 1   
    38    19    50 1   
    39    20    21 1   
    40    20    51 1   
    41    21    22 2   
    42    21    23 2   
    43    21    24 1   
    44    24    25 1   
    45    24    52 1   
    46    24    53 1   
    47    25    26 1   
    48    25    27 1   
    49    25    54 1   
    50    26    55 1   
    51    26    56 1   
    52    26    57 1   
    53    27    58 1   
    54    27    59 1   
    55    27    60 1   
    56    28    29 1   
    57    28    61 1   
    58    29    30 ar  
    59    29    35 ar  
    60    30    31 ar  
    61    30    62 1   
    62    31    32 ar  
    63    31    63 1   
    64    32    33 1   
    65    32    34 ar  
    66    34    35 ar  
    67    34    64 1   
    68    35    65 1   
@<TRIPOS>SUBSTRUCTURE
     1 6B2         1 TEMP              0 ****  ****    0 ROOT
