@<TRIPOS>MOLECULE
6B3
   50    54     1     0     0
SMALL
No Charge or Current Charge


@<TRIPOS>ATOM
      1 C15         -4.4350    -0.0230    -0.3880 ca         1 6B3       0.061000
      2 C14          3.3310     1.3720     1.5190 ca         1 6B3      -0.125600
      3 C13          1.8490     1.1940     1.7530 c          1 6B3       0.624700
      4 C17         -4.7310    -0.4100     2.1070 c          1 6B3       0.577600
      5 C18          4.0710     2.3130     2.2620 ca         1 6B3      -0.073000
      6 C12          2.9170    -0.5070    -1.5500 ca         1 6B3      -0.123600
      7 C9           3.2820    -0.5730    -0.1730 cp         1 6B3      -0.050000
      8 C7          -6.6500    -0.6270     0.4960 ca         1 6B3      -0.048000
      9 C6          -2.1410     0.5830    -1.1920 ca         1 6B3      -0.040000
     10 C5          -3.0510     0.2530    -0.1570 ca         1 6B3      -0.156000
     11 C2          -0.3020     0.7930     0.4080 ca         1 6B3       0.064000
     12 C4          -2.5440     0.1970     1.1610 ca         1 6B3       0.118600
     13 C3          -1.1950     0.4590     1.4430 ca         1 6B3      -0.228000
     14 C1          -0.7910     0.8450    -0.9070 ca         1 6B3      -0.178000
     15 C21          5.3530     0.7400     0.3200 ca         1 6B3      -0.098000
     16 C26          3.0020    -1.7720     0.5260 ca         1 6B3      -0.110000
     17 C25          2.3910    -2.8630    -0.1140 ca         1 6B3      -0.134000
     18 C24          2.0490    -2.7810    -1.4730 ca         1 6B3      -0.125000
     19 C23          2.3100    -1.6050    -2.1930 ca         1 6B3      -0.092000
     20 C22          3.9700     0.5430     0.5460 cp         1 6B3       0.043000
     21 N9          -3.4040    -0.1300     2.2110 ns         1 6B3      -0.377100
     22 C16         -5.2820    -0.3520     0.7090 ca         1 6B3      -0.174600
     23 C8          -7.1930    -0.5810    -0.7950 ca         1 6B3      -0.152000
     24 C10         -5.0120     0.0160    -1.6840 ca         1 6B3      -0.130000
     25 C11         -6.3740    -0.2600    -1.8830 ca         1 6B3      -0.084000
     26 O9          -5.4020    -0.6860     3.0920 o          1 6B3      -0.582000
     27 N12          1.0760     1.0560     0.6120 ns         1 6B3      -0.147000
     28 C19          5.4430     2.4820     2.0160 ca         1 6B3      -0.134000
     29 C20          6.0810     1.7030     1.0390 ca         1 6B3      -0.100000
     30 O29          1.3870     1.2130     2.8900 o          1 6B3      -0.626100
     31 O35          2.6890     1.8180    -1.7610 o          1 6B3      -0.703500
     32 O30          3.6360     0.7660    -3.3870 o          1 6B3      -0.703500
     33 H1           3.5790     2.9250     3.0160 ha         1 6B3       0.115000
     34 H2          -7.2980    -0.8790     1.3330 ha         1 6B3       0.128000
     35 H3          -2.4450     0.6440    -2.2310 ha         1 6B3       0.108000
     36 H4          -0.8550     0.3900     2.4700 ha         1 6B3       0.148000
     37 H5          -0.1170     1.0930    -1.7250 ha         1 6B3       0.155000
     38 H6           5.8670     0.1200    -0.4110 ha         1 6B3       0.121000
     39 H7           3.2730    -1.8550     1.5760 ha         1 6B3       0.103000
     40 H8           2.1870    -3.7750     0.4430 ha         1 6B3       0.094000
     41 H9           1.5760    -3.6270    -1.9680 ha         1 6B3       0.094000
     42 H10          2.0290    -1.5360    -3.2420 ha         1 6B3       0.122000
     43 H11         -3.0130    -0.1630     3.1420 hn         1 6B3       0.326500
     44 H12         -8.2480    -0.7950    -0.9500 ha         1 6B3       0.107000
     45 H13         -4.4290     0.2590    -2.5640 ha         1 6B3       0.117000
     46 H14         -6.7940    -0.2230    -2.8860 ha         1 6B3       0.104000
     47 H15          1.6100     1.1490    -0.2460 hn         1 6B3       0.246000
     48 H16          6.0100     3.2180     2.5810 ha         1 6B3       0.100000
     49 H17          7.1450     1.8330     0.8490 ha         1 6B3       0.101000
     50 C28          3.1420     0.8020    -2.2690 c          1 6B3       0.716600
@<TRIPOS>BOND
     1     1    10 1   
     2     1    22 ar  
     3     1    24 ar  
     4     2     3 1   
     5     2     5 ar  
     6     2    20 ar  
     7     3    27 1   
     8     3    30 2   
     9     4    21 1   
    10     4    22 1   
    11     4    26 2   
    12     5    28 ar  
    13     5    33 1   
    14     6     7 ar  
    15     6    19 ar  
    16     6    50 1   
    17     7    16 ar  
    18     7    20 1   
    19     8    22 ar  
    20     8    23 ar  
    21     8    34 1   
    22     9    10 ar  
    23     9    14 ar  
    24     9    35 1   
    25    10    12 ar  
    26    11    13 ar  
    27    11    14 ar  
    28    11    27 1   
    29    12    13 ar  
    30    12    21 1   
    31    13    36 1   
    32    14    37 1   
    33    15    20 ar  
    34    15    29 ar  
    35    15    38 1   
    36    16    17 ar  
    37    16    39 1   
    38    17    18 ar  
    39    17    40 1   
    40    18    19 ar  
    41    18    41 1   
    42    19    42 1   
    43    21    43 1   
    44    23    25 ar  
    45    23    44 1   
    46    24    25 ar  
    47    24    45 1   
    48    25    46 1   
    49    27    47 1   
    50    28    29 ar  
    51    28    48 1   
    52    29    49 1   
    53    31    50 1   
    54    32    50 1   
@<TRIPOS>SUBSTRUCTURE
     1 6B3         1 TEMP              0 ****  ****    0 ROOT
