@<TRIPOS>MOLECULE
6B3
   50    54     1     0     0
SMALL
bcc


@<TRIPOS>ATOM
      1 C15         -4.4630     0.0380    -0.3680 ca         1 6B3       0.061000
      2 C14          3.2180     1.2270     1.4840 ca         1 6B3      -0.125600
      3 C13          1.7540     1.0190     1.7120 c          1 6B3       0.691700
      4 C17         -4.7510    -0.2130     2.1050 c          1 6B3       0.720100
      5 C18          3.8680     2.1860     2.2570 ca         1 6B3      -0.091000
      6 C12          2.9760    -0.5550    -1.5600 ca         1 6B3      -0.123600
      7 C9           3.3320    -0.6510    -0.2120 cp         1 6B3      -0.050000
      8 C7          -6.6490    -0.4940     0.5600 ca         1 6B3      -0.066000
      9 C6          -2.1380     0.5930    -1.1740 ca         1 6B3      -0.058000
     10 C5          -3.0540     0.3170    -0.1520 ca         1 6B3      -0.156000
     11 C2          -0.3310     0.8300     0.4110 ca         1 6B3       0.156600
     12 C4          -2.5620     0.3150     1.1570 ca         1 6B3       0.118600
     13 C3          -1.2200     0.5690     1.4450 ca         1 6B3      -0.246000
     14 C1          -0.8140     0.8440    -0.9110 ca         1 6B3      -0.196000
     15 C21          5.2830     0.7620     0.3550 ca         1 6B3      -0.116000
     16 C26          3.2220    -1.8770     0.4400 ca         1 6B3      -0.128000
     17 C25          2.7560    -2.9990    -0.2290 ca         1 6B3      -0.152000
     18 C24          2.4190    -2.9090    -1.5720 ca         1 6B3      -0.143000
     19 C23          2.5450    -1.6960    -2.2320 ca         1 6B3      -0.110000
     20 C22          3.9300     0.4900     0.5340 cp         1 6B3       0.043000
     21 N9          -3.4220     0.0560     2.2030 ns         1 6B3      -0.444100
     22 C16         -5.2900    -0.2220     0.7370 ca         1 6B3      -0.174600
     23 C8          -7.1980    -0.5160    -0.7030 ca         1 6B3      -0.170000
     24 C10         -5.0430     0.0110    -1.6450 ca         1 6B3      -0.148000
     25 C11         -6.3850    -0.2620    -1.8080 ca         1 6B3      -0.102000
     26 O9          -5.4270    -0.4290     3.1020 o          1 6B3      -0.657500
     27 N12          1.0230     1.0810     0.5770 ns         1 6B3      -0.473100
     28 C19          5.2130     2.4540     2.0600 ca         1 6B3      -0.152000
     29 C20          5.9210     1.7430     1.1010 ca         1 6B3      -0.118000
     30 O29          1.3060     0.8550     2.8360 o          1 6B3      -0.626100
     31 O35          2.4580     1.7320    -1.6770 o          1 6B3      -0.808800
     32 O30          3.4640     0.7990    -3.4320 o          1 6B3      -0.808800
     33 H1           3.3110     2.7400     3.0010 ha         1 6B3       0.133000
     34 H2          -7.2660    -0.6870     1.4270 ha         1 6B3       0.146000
     35 H3          -2.4640     0.6120    -2.2050 ha         1 6B3       0.126000
     36 H4          -0.8940     0.5610     2.4730 ha         1 6B3       0.166000
     37 H5          -0.1360     1.0510    -1.7280 ha         1 6B3       0.173000
     38 H6           5.8470     0.1870    -0.3700 ha         1 6B3       0.139000
     39 H7           3.5150    -1.9550     1.4800 ha         1 6B3       0.121000
     40 H8           2.6690    -3.9420     0.2950 ha         1 6B3       0.112000
     41 H9           2.0650    -3.7830    -2.1040 ha         1 6B3       0.112000
     42 H10          2.2850    -1.6270    -3.2810 ha         1 6B3       0.140000
     43 H11         -3.0390     0.0700     3.1390 hn         1 6B3       0.326500
     44 H12         -8.2510    -0.7250    -0.8380 ha         1 6B3       0.125000
     45 H13         -4.4430     0.2040    -2.5230 ha         1 6B3       0.135000
     46 H14         -6.8060    -0.2780    -2.8050 ha         1 6B3       0.122000
     47 H15          1.5500     1.3090    -0.2920 hn         1 6B3       0.412500
     48 H16          5.7070     3.2130     2.6530 ha         1 6B3       0.118000
     49 H17          6.9720     1.9420     0.9410 ha         1 6B3       0.119000
     50 C28          2.9840     0.7690    -2.2930 c          1 6B3       0.927200
@<TRIPOS>BOND
     1     1    10 1   
     2     1    22 ar  
     3     1    24 ar  
     4     2     3 1   
     5     2     5 ar  
     6     2    20 ar  
     7     3    27 1   
     8     3    30 2   
     9     4    21 1   
    10     4    22 1   
    11     4    26 2   
    12     5    28 ar  
    13     5    33 1   
    14     6     7 ar  
    15     6    19 ar  
    16     6    50 1   
    17     7    16 ar  
    18     7    20 1   
    19     8    22 ar  
    20     8    23 ar  
    21     8    34 1   
    22     9    10 ar  
    23     9    14 ar  
    24     9    35 1   
    25    10    12 ar  
    26    11    13 ar  
    27    11    14 ar  
    28    11    27 1   
    29    12    13 ar  
    30    12    21 1   
    31    13    36 1   
    32    14    37 1   
    33    15    20 ar  
    34    15    29 ar  
    35    15    38 1   
    36    16    17 ar  
    37    16    39 1   
    38    17    18 ar  
    39    17    40 1   
    40    18    19 ar  
    41    18    41 1   
    42    19    42 1   
    43    21    43 1   
    44    23    25 ar  
    45    23    44 1   
    46    24    25 ar  
    47    24    45 1   
    48    25    46 1   
    49    27    47 1   
    50    28    29 ar  
    51    28    48 1   
    52    29    49 1   
    53    31    50 1   
    54    32    50 1   
@<TRIPOS>SUBSTRUCTURE
     1 6B3         1 TEMP              0 ****  ****    0 ROOT
