@<TRIPOS>MOLECULE
6B4
   54    56     1     0     0
SMALL
No Charge or Current Charge


@<TRIPOS>ATOM
      1 CAA         -6.3790     2.9670     1.5970 c3         1 6B4       0.021900
      2 SAT         -4.9570     1.7910     1.7090 ss         1 6B4      -0.178000
      3 CAY         -4.3660     1.6140     0.0180 ca         1 6B4      -0.072000
      4 CAG         -4.4380     2.7130    -0.8640 ca         1 6B4      -0.123000
      5 CAE         -4.0000     2.5940    -2.1910 ca         1 6B4      -0.095000
      6 CAF         -3.4870     1.3740    -2.6490 ca         1 6B4      -0.115000
      7 CAH         -3.4030     0.2770    -1.7780 ca         1 6B4      -0.082000
      8 CAZ         -3.8270     0.3800    -0.4300 ca         1 6B4      -0.066300
      9 CBA         -3.7330    -0.8380     0.5140 c5         1 6B4       0.155000
     10 CAP         -4.8740    -1.8120     0.1020 c5         1 6B4      -0.088400
     11 CAM         -4.2700    -3.1800     0.5000 c5         1 6B4      -0.096400
     12 CAQ         -2.8220    -3.0620    -0.0430 c5         1 6B4       0.100000
     13 N1          -2.5190    -1.6360     0.2180 n          1 6B4      -0.414800
     14 C           -1.2090    -1.1290     0.3460 c          1 6B4       0.589100
     15 O           -1.0100     0.0020     0.7800 o          1 6B4      -0.601100
     16 CA          -0.0350    -2.0430    -0.1020 c3         1 6B4       0.044000
     17 N            1.2760    -1.3630    -0.0060 ns         1 6B4      -0.524900
     18 CAU          2.4660    -1.9330    -0.3550 c          1 6B4       0.655100
     19 OAC          2.5660    -3.0690    -0.7850 o          1 6B4      -0.661100
     20 N2           3.5270    -1.0980    -0.1730 ns         1 6B4      -0.529900
     21 CAO          4.9080    -1.4590    -0.4680 c3         1 6B4       0.180300
     22 CAX          5.8470    -0.3050    -0.1560 ca         1 6B4      -0.167300
     23 CAK          6.1480     0.6520    -1.1430 ca         1 6B4      -0.052500
     24 CAI          7.0150     1.7190    -0.8500 ca         1 6B4      -0.185000
     25 CAW          7.5830     1.8360     0.4260 ca         1 6B4       0.302000
     26 N3           8.4270     2.8740     0.7070 nv         1 6B4      -1.075000
     27 CAJ          7.2840     0.8870     1.4130 ca         1 6B4      -0.185000
     28 CAL          6.4180    -0.1830     1.1260 ca         1 6B4      -0.052500
     29 H1          -6.0220     3.9690     1.3330 h1         1 6B4       0.065700
     30 H2          -7.0890     2.6170     0.8370 h1         1 6B4       0.065700
     31 H3          -6.8860     3.0170     2.5680 h1         1 6B4       0.065700
     32 H4          -4.8250     3.6700    -0.5280 ha         1 6B4       0.112000
     33 H5          -4.0600     3.4470    -2.8630 ha         1 6B4       0.112000
     34 H6          -3.1530     1.2770    -3.6800 ha         1 6B4       0.115000
     35 H7          -3.0070    -0.6610    -2.1590 ha         1 6B4       0.115000
     36 H8          -3.7670    -0.5790     1.5800 h1         1 6B4       0.081700
     37 H9          -5.8140    -1.5930     0.6210 hc         1 6B4       0.062200
     38 H10         -5.0820    -1.7830    -0.9740 hc         1 6B4       0.062200
     39 H11         -4.2720    -3.3100     1.5890 hc         1 6B4       0.057200
     40 H12         -4.8120    -4.0280     0.0670 hc         1 6B4       0.057200
     41 H13         -2.1420    -3.7460     0.4810 h1         1 6B4       0.052200
     42 H14         -2.7760    -3.2750    -1.1190 h1         1 6B4       0.052200
     43 H15         -0.0260    -2.9350     0.5360 h1         1 6B4       0.062700
     44 H16         -0.2140    -2.3510    -1.1390 h1         1 6B4       0.062700
     45 H17          1.2950    -0.4120     0.3430 hn         1 6B4       0.336500
     46 H18          5.1830    -2.3390     0.1290 h1         1 6B4       0.052200
     47 H19          4.9880    -1.7290    -1.5300 h1         1 6B4       0.052200
     48 H20          5.7100     0.5710    -2.1370 ha         1 6B4       0.114000
     49 H21          7.2420     2.4540    -1.6180 ha         1 6B4       0.113000
     50 H22          7.7200     0.9740     2.4040 ha         1 6B4       0.113000
     51 H23          6.1900    -0.9140     1.8990 ha         1 6B4       0.114000
     52 H24          3.3430    -0.1720     0.1890 hn         1 6B4       0.317500
     53 H25          8.7610     3.4720    -0.0460 hn         1 6B4       0.450500
     54 H26          8.9550     2.8760     1.5780 hn         1 6B4       0.450500
@<TRIPOS>BOND
     1     1     2 1   
     2     1    29 1   
     3     1    30 1   
     4     1    31 1   
     5     2     3 1   
     6     3     4 ar  
     7     3     8 ar  
     8     4     5 ar  
     9     4    32 1   
    10     5     6 ar  
    11     5    33 1   
    12     6     7 ar  
    13     6    34 1   
    14     7     8 ar  
    15     7    35 1   
    16     8     9 1   
    17     9    10 1   
    18     9    13 1   
    19     9    36 1   
    20    10    11 1   
    21    10    37 1   
    22    10    38 1   
    23    11    12 1   
    24    11    39 1   
    25    11    40 1   
    26    12    13 1   
    27    12    41 1   
    28    12    42 1   
    29    13    14 1   
    30    14    15 2   
    31    14    16 1   
    32    16    17 1   
    33    16    43 1   
    34    16    44 1   
    35    17    18 1   
    36    17    45 1   
    37    18    19 2   
    38    18    20 1   
    39    20    21 1   
    40    20    52 1   
    41    21    22 1   
    42    21    46 1   
    43    21    47 1   
    44    22    23 ar  
    45    22    28 ar  
    46    23    24 ar  
    47    23    48 1   
    48    24    25 ar  
    49    24    49 1   
    50    25    26 1   
    51    25    27 ar  
    52    26    53 1   
    53    26    54 1   
    54    27    28 ar  
    55    27    50 1   
    56    28    51 1   
@<TRIPOS>SUBSTRUCTURE
     1 6B4         1 TEMP              0 ****  ****    0 ROOT
