@<TRIPOS>MOLECULE
6B4
   54    56     1     0     0
SMALL
abcg2


@<TRIPOS>ATOM
      1 CAA         -5.9250     3.0790     1.7460 c3         1 6B4       0.021900
      2 SAT         -5.2110     1.4380     1.5420 ss         1 6B4      -0.178000
      3 CAY         -4.5820     1.4550    -0.1120 ca         1 6B4      -0.072000
      4 CAG         -4.8040     2.5220    -0.9820 ca         1 6B4      -0.123000
      5 CAE         -4.3140     2.4890    -2.2780 ca         1 6B4      -0.095000
      6 CAF         -3.6020     1.3860    -2.7230 ca         1 6B4      -0.115000
      7 CAH         -3.3800     0.3260    -1.8570 ca         1 6B4      -0.082000
      8 CAZ         -3.8510     0.3420    -0.5500 ca         1 6B4      -0.066300
      9 CBA         -3.6400    -0.8500     0.3530 c5         1 6B4       0.155000
     10 CAP         -4.7720    -1.8850     0.2230 c5         1 6B4      -0.088400
     11 CAM         -4.0790    -3.2230     0.4460 c5         1 6B4      -0.096400
     12 CAQ         -2.7370    -3.0240    -0.2440 c5         1 6B4       0.100000
     13 N1          -2.4420    -1.6210     0.0330 n          1 6B4      -0.414800
     14 C           -1.2230    -1.0840     0.1910 c          1 6B4       0.589100
     15 O           -1.0600     0.0710     0.5590 o          1 6B4      -0.601100
     16 CA          -0.0440    -1.9910    -0.1220 c3         1 6B4       0.044000
     17 N            1.1660    -1.2260    -0.0700 ns         1 6B4      -0.524900
     18 CAU          2.3770    -1.8080    -0.2590 c          1 6B4       0.655100
     19 OAC          2.4960    -2.9920    -0.5660 o          1 6B4      -0.661100
     20 N2           3.4430    -0.9910    -0.0920 ns         1 6B4      -0.529900
     21 CAO          4.8020    -1.4540    -0.3020 c3         1 6B4       0.180300
     22 CAX          5.7700    -0.3330    -0.0470 ca         1 6B4      -0.167300
     23 CAK          6.1080     0.5690    -1.0530 ca         1 6B4      -0.052500
     24 CAI          6.9710     1.6260    -0.8180 ca         1 6B4      -0.185000
     25 CAW          7.5300     1.8220     0.4510 ca         1 6B4       0.302000
     26 N3           8.3440     2.9040     0.7070 nv         1 6B4      -1.075000
     27 CAJ          7.1970     0.9140     1.4640 ca         1 6B4      -0.185000
     28 CAL          6.3300    -0.1360     1.2120 ca         1 6B4      -0.052500
     29 H1          -5.1810     3.8600     1.6090 h1         1 6B4       0.065700
     30 H2          -6.7670     3.2430     1.0770 h1         1 6B4       0.065700
     31 H3          -6.2870     3.1150     2.7720 h1         1 6B4       0.065700
     32 H4          -5.3600     3.3910    -0.6590 ha         1 6B4       0.112000
     33 H5          -4.4950     3.3280    -2.9380 ha         1 6B4       0.112000
     34 H6          -3.2190     1.3500    -3.7340 ha         1 6B4       0.115000
     35 H7          -2.8210    -0.5330    -2.2080 ha         1 6B4       0.115000
     36 H8          -3.5620    -0.5110     1.3920 h1         1 6B4       0.081700
     37 H9          -5.5750    -1.6890     0.9310 hc         1 6B4       0.062200
     38 H10         -5.1960    -1.8460    -0.7830 hc         1 6B4       0.062200
     39 H11         -3.9270    -3.4060     1.5110 hc         1 6B4       0.057200
     40 H12         -4.6350    -4.0640     0.0330 hc         1 6B4       0.057200
     41 H13         -1.9660    -3.6830     0.1500 h1         1 6B4       0.052200
     42 H14         -2.8170    -3.1980    -1.3210 h1         1 6B4       0.052200
     43 H15         -0.0350    -2.8170     0.5990 h1         1 6B4       0.062700
     44 H16         -0.1870    -2.4450    -1.1070 h1         1 6B4       0.062700
     45 H17          1.0920    -0.2830     0.2780 hn         1 6B4       0.336500
     46 H18          5.0220    -2.2900     0.3670 h1         1 6B4       0.052200
     47 H19          4.9240    -1.8250    -1.3230 h1         1 6B4       0.052200
     48 H20          5.6940     0.4430    -2.0470 ha         1 6B4       0.114000
     49 H21          7.2190     2.3070    -1.6240 ha         1 6B4       0.113000
     50 H22          7.6210     1.0350     2.4540 ha         1 6B4       0.113000
     51 H23          6.0930    -0.8230     2.0160 ha         1 6B4       0.114000
     52 H24          3.3060    -0.0170     0.1210 hn         1 6B4       0.317500
     53 H25          8.8060     3.3070    -0.0920 hn         1 6B4       0.450500
     54 H26          8.9650     2.8140     1.4950 hn         1 6B4       0.450500
@<TRIPOS>BOND
     1     1     2 1   
     2     1    29 1   
     3     1    30 1   
     4     1    31 1   
     5     2     3 1   
     6     3     4 ar  
     7     3     8 ar  
     8     4     5 ar  
     9     4    32 1   
    10     5     6 ar  
    11     5    33 1   
    12     6     7 ar  
    13     6    34 1   
    14     7     8 ar  
    15     7    35 1   
    16     8     9 1   
    17     9    10 1   
    18     9    13 1   
    19     9    36 1   
    20    10    11 1   
    21    10    37 1   
    22    10    38 1   
    23    11    12 1   
    24    11    39 1   
    25    11    40 1   
    26    12    13 1   
    27    12    41 1   
    28    12    42 1   
    29    13    14 1   
    30    14    15 2   
    31    14    16 1   
    32    16    17 1   
    33    16    43 1   
    34    16    44 1   
    35    17    18 1   
    36    17    45 1   
    37    18    19 2   
    38    18    20 1   
    39    20    21 1   
    40    20    52 1   
    41    21    22 1   
    42    21    46 1   
    43    21    47 1   
    44    22    23 ar  
    45    22    28 ar  
    46    23    24 ar  
    47    23    48 1   
    48    24    25 ar  
    49    24    49 1   
    50    25    26 1   
    51    25    27 ar  
    52    26    53 1   
    53    26    54 1   
    54    27    28 ar  
    55    27    50 1   
    56    28    51 1   
@<TRIPOS>SUBSTRUCTURE
     1 6B4         1 TEMP              0 ****  ****    0 ROOT
