@<TRIPOS>MOLECULE
6B5
   34    36     1     0     0
SMALL
abcg2


@<TRIPOS>ATOM
      1 C10          4.4490     0.9600    -0.2770 ca         1 6B5      -0.172000
      2 C02         -1.1980     2.1660     0.0980 c          1 6B5       0.615900
      3 C03         -2.0210     0.9800     0.0090 ca         1 6B5      -0.382600
      4 C04         -1.4250    -0.2810    -0.0780 ca         1 6B5       0.236100
      5 O05         -0.0790    -0.3960    -0.0950 os         1 6B5      -0.215200
      6 C06          0.7200     0.6760    -0.0030 cc         1 6B5       0.228900
      7 C07          0.2190     1.9300     0.1020 cd         1 6B5      -0.386200
      8 C08          2.1390     0.3240    -0.0200 ca         1 6B5      -0.075800
      9 C09          3.1060     1.2950    -0.2720 ca         1 6B5      -0.070000
     10 C11          4.8510    -0.3450    -0.0350 ca         1 6B5       0.071100
     11 O12          6.1320    -0.7520    -0.0240 oh         1 6B5      -0.551100
     12 C13          3.8860    -1.3330     0.2150 ca         1 6B5       0.113100
     13 O14          4.2320    -2.6120     0.4580 oh         1 6B5      -0.530100
     14 C15          2.5470    -0.9940     0.2170 ca         1 6B5      -0.080000
     15 C16         -2.1540    -1.4470    -0.1550 ca         1 6B5      -0.236000
     16 C17         -3.5480    -1.3520    -0.1460 ca         1 6B5       0.244100
     17 O18         -4.2030    -2.5120    -0.2260 os         1 6B5      -0.333100
     18 C19         -5.6210    -2.5100    -0.2250 c3         1 6B5       0.147900
     19 C20         -4.1880    -0.1130    -0.0620 ca         1 6B5      -0.300000
     20 C21         -3.4300     1.0460     0.0150 ca         1 6B5       0.285100
     21 O22         -4.0480     2.2200     0.0970 oh         1 6B5      -0.542100
     22 H101         5.1930     1.7220    -0.4790 ha         1 6B5       0.120000
     23 H071         0.8860     2.7740     0.2020 ha         1 6B5       0.215000
     24 H091         2.8280     2.3170    -0.4880 ha         1 6B5       0.126000
     25 H121         6.7330    -0.0230    -0.2160 ho         1 6B5       0.481000
     26 H141         5.1910    -2.7190     0.4270 ho         1 6B5       0.485000
     27 H151         1.8260    -1.7760     0.4190 ha         1 6B5       0.148000
     28 H161        -1.6640    -2.4100    -0.2240 ha         1 6B5       0.150000
     29 H193        -6.0250    -1.9620    -1.0790 h1         1 6B5       0.048033
     30 H192        -5.9260    -3.5500    -0.2980 h1         1 6B5       0.048033
     31 H191        -6.0260    -2.0860     0.6960 h1         1 6B5       0.048033
     32 H201        -5.2660    -0.0270    -0.0560 ha         1 6B5       0.140000
     33 H221        -3.3490     2.9180     0.1430 ho         1 6B5       0.525000
     34 O01         -1.6950     3.3030     0.1750 o          1 6B5      -0.604100
@<TRIPOS>BOND
     1     1     9 ar  
     2     1    10 ar  
     3     1    22 1   
     4     2     3 1   
     5     2     7 1   
     6     2    34 2   
     7     3     4 ar  
     8     3    20 ar  
     9     4     5 1   
    10     4    15 ar  
    11     5     6 1   
    12     6     7 2   
    13     6     8 1   
    14     7    23 1   
    15     8     9 ar  
    16     8    14 ar  
    17     9    24 1   
    18    10    11 1   
    19    10    12 ar  
    20    11    25 1   
    21    12    13 1   
    22    12    14 ar  
    23    13    26 1   
    24    14    27 1   
    25    15    16 ar  
    26    15    28 1   
    27    16    17 1   
    28    16    19 ar  
    29    17    18 1   
    30    18    29 1   
    31    18    30 1   
    32    18    31 1   
    33    19    20 ar  
    34    19    32 1   
    35    20    21 1   
    36    21    33 1   
@<TRIPOS>SUBSTRUCTURE
     1 6B5         1 TEMP              0 ****  ****    0 ROOT
