@<TRIPOS>MOLECULE
6B5
   34    36     1     0     0
SMALL
No Charge or Current Charge


@<TRIPOS>ATOM
      1 C10          4.4310     0.8980    -0.6840 ca         1 6B5      -0.172000
      2 C02         -1.1380     2.0420     0.4150 c          1 6B5       0.615900
      3 C03         -2.0350     0.8990     0.1930 ca         1 6B5      -0.382600
      4 C04         -1.4620    -0.3730     0.0530 ca         1 6B5       0.236100
      5 O05         -0.1030    -0.6320     0.1570 os         1 6B5      -0.215200
      6 C06          0.7440     0.4630     0.1240 cc         1 6B5       0.228900
      7 C07          0.2680     1.7360     0.3390 cd         1 6B5      -0.386200
      8 C08          2.1870     0.2160     0.0310 ca         1 6B5      -0.075800
      9 C09          3.0490     1.1470    -0.5930 ca         1 6B5      -0.070000
     10 C11          4.9660    -0.2870    -0.1550 ca         1 6B5       0.071100
     11 O12          6.3110    -0.5340    -0.2410 oh         1 6B5      -0.551100
     12 C13          4.1150    -1.2250     0.4620 ca         1 6B5       0.113100
     13 O14          4.6400    -2.3780     0.9720 oh         1 6B5      -0.530100
     14 C15          2.7360    -0.9770     0.5520 ca         1 6B5      -0.080000
     15 C16         -2.2950    -1.4810    -0.1510 ca         1 6B5      -0.236000
     16 C17         -3.6820    -1.3350    -0.2360 ca         1 6B5       0.244100
     17 O18         -4.4390    -2.4690    -0.4440 os         1 6B5      -0.333100
     18 C19         -5.8730    -2.4260    -0.5440 c3         1 6B5       0.147900
     19 C20         -4.2520    -0.0580    -0.1020 ca         1 6B5      -0.300000
     20 C21         -3.4290     1.0480     0.1140 ca         1 6B5       0.285100
     21 O22         -3.9990     2.2700     0.2470 oh         1 6B5      -0.542100
     22 H101         5.0750     1.6270    -1.1690 ha         1 6B5       0.120000
     23 H071         0.9200     2.5930     0.4450 ha         1 6B5       0.215000
     24 H091         2.6500     2.0630    -1.0240 ha         1 6B5       0.126000
     25 H121         6.7430     0.2220    -0.6980 ho         1 6B5       0.481000
     26 H141         5.6080    -2.3360     0.7980 ho         1 6B5       0.485000
     27 H151         2.0950    -1.7110     1.0340 ha         1 6B5       0.148000
     28 H161        -1.8560    -2.4700    -0.2460 ha         1 6B5       0.150000
     29 H193        -6.1880    -1.7930    -1.3840 h1         1 6B5       0.048033
     30 H192        -6.2730    -3.4340    -0.7100 h1         1 6B5       0.048033
     31 H191        -6.3170    -2.0320     0.3790 h1         1 6B5       0.048033
     32 H201        -5.3240     0.0940    -0.1600 ha         1 6B5       0.140000
     33 H221        -3.2440     2.8890     0.4180 ho         1 6B5       0.525000
     34 O01         -1.5570     3.1730     0.6210 o          1 6B5      -0.604100
@<TRIPOS>BOND
     1     1     9 ar  
     2     1    10 ar  
     3     1    22 1   
     4     2     3 1   
     5     2     7 1   
     6     2    34 2   
     7     3     4 ar  
     8     3    20 ar  
     9     4     5 1   
    10     4    15 ar  
    11     5     6 1   
    12     6     7 2   
    13     6     8 1   
    14     7    23 1   
    15     8     9 ar  
    16     8    14 ar  
    17     9    24 1   
    18    10    11 1   
    19    10    12 ar  
    20    11    25 1   
    21    12    13 1   
    22    12    14 ar  
    23    13    26 1   
    24    14    27 1   
    25    15    16 ar  
    26    15    28 1   
    27    16    17 1   
    28    16    19 ar  
    29    17    18 1   
    30    18    29 1   
    31    18    30 1   
    32    18    31 1   
    33    19    20 ar  
    34    19    32 1   
    35    20    21 1   
    36    21    33 1   
@<TRIPOS>SUBSTRUCTURE
     1 6B5         1 TEMP              0 ****  ****    0 ROOT
