@<TRIPOS>MOLECULE
6B7
   45    45     1     0     0
SMALL
abcg2


@<TRIPOS>ATOM
      1 C10          1.5740     1.9760     1.5400 c3         1 6B7      -0.073100
      2 CD           2.6310    -0.0740     0.3560 c2         1 6B7       0.322300
      3 C12          3.8530     0.6860    -0.0650 c3         1 6B7      -0.194000
      4 N            2.2910    -1.2030    -0.1060 n2         1 6B7      -0.452900
      5 C13          3.4790     1.7250    -1.1090 c          1 6B7       0.602900
      6 C14          5.0210    -0.1320    -0.6400 c3         1 6B7       0.198300
      7 C15          5.4590    -1.2750     0.2590 c3         1 6B7      -0.123100
      8 S1          -0.6410     0.4910    -0.0110 ss         1 6B7      -0.370000
      9 C1          -3.3340     0.5620    -0.2430 c          1 6B7       0.612100
     10 O1          -3.1400     1.3450    -1.1390 o          1 6B7      -0.485000
     11 O2          -4.5310     0.1610     0.1500 os         1 6B7      -0.449100
     12 C2          -5.6800     0.7010    -0.5230 c3         1 6B7       0.166600
     13 C3          -6.9160     0.0580     0.0690 c3         1 6B7      -0.084400
     14 C4          -8.1770     0.6050    -0.5870 c3         1 6B7      -0.089100
     15 O5           4.0890     2.7500    -1.2700 o          1 6B7      -0.561100
     16 C5          -2.2510    -0.0900     0.5710 c3         1 6B7      -0.023400
     17 O6           4.6510    -0.5580    -1.9340 oh         1 6B7      -0.630000
     18 CB           0.4580    -0.3720     1.1710 c5         1 6B7       0.074300
     19 CA           1.0840    -1.6460     0.5750 c5         1 6B7      -0.037500
     20 C            0.1330    -2.4950    -0.2820 c          1 6B7       0.740000
     21 CG           1.7160     0.4660     1.4370 c5         1 6B7      -0.145000
     22 H1           0.8190     2.2360     2.2810 hc         1 6B7       0.033367
     23 H2           2.5130     2.4310     1.8580 hc         1 6B7       0.033367
     24 H3           1.2770     2.4400     0.6000 hc         1 6B7       0.033367
     25 H5           4.2460     1.2230     0.8040 hc         1 6B7       0.061700
     26 H8           2.6100     1.4760    -1.7440 h4         1 6B7       0.027200
     27 H9           5.8580     0.5770    -0.7070 h1         1 6B7       0.010700
     28 H10          4.6930    -2.0440     0.3340 hc         1 6B7       0.042033
     29 H11          6.3690    -1.7320    -0.1350 hc         1 6B7       0.042033
     30 H12          5.6850    -0.9100     1.2620 hc         1 6B7       0.042033
     31 H13         -5.7070     1.7850    -0.3900 h1         1 6B7       0.043200
     32 H14         -5.6120     0.4950    -1.5940 h1         1 6B7       0.043200
     33 H15         -6.8670    -1.0250    -0.0680 hc         1 6B7       0.052700
     34 H16         -6.9480     0.2440     1.1450 hc         1 6B7       0.052700
     35 H18         -9.0660     0.1390    -0.1640 hc         1 6B7       0.030367
     36 H19         -8.2660     1.6820    -0.4400 hc         1 6B7       0.030367
     37 H20         -8.1830     0.4150    -1.6610 hc         1 6B7       0.030367
     38 H21         -2.3190    -1.1750     0.4840 h1         1 6B7       0.107700
     39 H22         -2.3890     0.1620     1.6260 h1         1 6B7       0.107700
     40 H23          5.4370    -0.9020    -2.3700 ho         1 6B7       0.429000
     41 H24         -0.1090    -0.5630     2.0820 h1         1 6B7       0.068700
     42 H25          1.4060    -2.2750     1.4180 h1         1 6B7       0.057700
     43 H26          2.1310     0.1070     2.3910 hc         1 6B7       0.043700
     44 O            0.4060    -2.6580    -1.4800 o          1 6B7      -0.711000
     45 OXT         -0.8460    -2.9620     0.3410 o          1 6B7      -0.711000
@<TRIPOS>BOND
     1     1    21 1   
     2     1    22 1   
     3     1    23 1   
     4     1    24 1   
     5     2     3 1   
     6     2     4 2   
     7     2    21 1   
     8     3     5 1   
     9     3     6 1   
    10     3    25 1   
    11     4    19 1   
    12     5    15 2   
    13     5    26 1   
    14     6     7 1   
    15     6    17 1   
    16     6    27 1   
    17     7    28 1   
    18     7    29 1   
    19     7    30 1   
    20     8    16 1   
    21     8    18 1   
    22     9    10 2   
    23     9    11 1   
    24     9    16 1   
    25    11    12 1   
    26    12    13 1   
    27    12    31 1   
    28    12    32 1   
    29    13    14 1   
    30    13    33 1   
    31    13    34 1   
    32    14    35 1   
    33    14    36 1   
    34    14    37 1   
    35    16    38 1   
    36    16    39 1   
    37    17    40 1   
    38    18    19 1   
    39    18    21 1   
    40    18    41 1   
    41    19    20 1   
    42    19    42 1   
    43    20    44 1   
    44    20    45 1   
    45    21    43 1   
@<TRIPOS>SUBSTRUCTURE
     1 6B7         1 TEMP              0 ****  ****    0 ROOT
