@<TRIPOS>MOLECULE
6B7
   45    45     1     0     0
SMALL
No Charge or Current Charge


@<TRIPOS>ATOM
      1 C10          1.6440     1.2850     1.6820 c3         1 6B7      -0.073100
      2 CD           2.6060    -0.2570    -0.2290 c2         1 6B7       0.322300
      3 C12          3.7340     0.6970    -0.5930 c3         1 6B7      -0.194000
      4 N            2.2640    -1.2280    -1.0040 n2         1 6B7      -0.452900
      5 C13          3.7050     0.9870    -2.0910 c          1 6B7       0.602900
      6 C14          5.1430     0.2250    -0.1670 c3         1 6B7       0.198300
      7 C15          5.2910    -0.0310     1.3450 c3         1 6B7      -0.123100
      8 S1          -0.5610     0.3110    -0.3170 ss         1 6B7      -0.370000
      9 C1          -3.4110     0.6460    -0.3350 c          1 6B7       0.612100
     10 O1          -3.2780     1.4850    -1.2190 o          1 6B7      -0.485000
     11 O2          -4.6160     0.2960     0.2190 os         1 6B7      -0.449100
     12 C2          -5.7990     0.9500    -0.2670 c3         1 6B7       0.166600
     13 C3          -6.9980     0.3800     0.5140 c3         1 6B7      -0.084400
     14 C4          -8.3440     1.0000     0.0900 c3         1 6B7      -0.089100
     15 O5           3.4530     2.0980    -2.5530 o          1 6B7      -0.561100
     16 C5          -2.2600    -0.1470     0.3030 c3         1 6B7      -0.023400
     17 O6           5.5030    -0.9600    -0.8740 oh         1 6B7      -0.630000
     18 CB           0.5150    -0.8670     0.6650 c5         1 6B7       0.074300
     19 CA           1.1380    -1.9370    -0.2910 c5         1 6B7      -0.037500
     20 C            0.0400    -2.5860    -1.2110 c          1 6B7       0.740000
     21 CG           1.8170    -0.1320     1.0700 c5         1 6B7      -0.145000
     22 H1           0.9170     1.2690     2.5030 hc         1 6B7       0.033367
     23 H2           2.5900     1.6540     2.0930 hc         1 6B7       0.033367
     24 H3           1.3000     2.0170     0.9410 hc         1 6B7       0.033367
     25 H5           3.5590     1.6620    -0.1080 hc         1 6B7       0.061700
     26 H8           3.9300     0.1280    -2.7630 h4         1 6B7       0.027200
     27 H9           5.8480     1.0240    -0.4310 h1         1 6B7       0.010700
     28 H10          4.6880    -0.8890     1.6650 hc         1 6B7       0.042033
     29 H11          6.3370    -0.2400     1.5990 hc         1 6B7       0.042033
     30 H12          4.9760     0.8490     1.9180 hc         1 6B7       0.042033
     31 H13         -5.7390     2.0350    -0.1080 h1         1 6B7       0.043200
     32 H14         -5.9370     0.7620    -1.3410 h1         1 6B7       0.043200
     33 H15         -7.0410    -0.7060     0.3650 hc         1 6B7       0.052700
     34 H16         -6.8450     0.5540     1.5860 hc         1 6B7       0.052700
     35 H18         -9.1660     0.5640     0.6710 hc         1 6B7       0.030367
     36 H19         -8.3420     2.0840     0.2580 hc         1 6B7       0.030367
     37 H20         -8.5390     0.8140    -0.9730 hc         1 6B7       0.030367
     38 H21         -2.4530    -1.2090     0.1120 h1         1 6B7       0.107700
     39 H22         -2.3130     0.0160     1.3860 h1         1 6B7       0.107700
     40 H23          6.3970    -1.2180    -0.5630 ho         1 6B7       0.429000
     41 H24         -0.0330    -1.2950     1.5160 h1         1 6B7       0.068700
     42 H25          1.5670    -2.7600     0.2940 h1         1 6B7       0.057700
     43 H26          2.3260    -0.7180     1.8440 hc         1 6B7       0.043700
     44 O            0.1130    -2.4830    -2.4300 o          1 6B7      -0.711000
     45 OXT         -0.8190    -3.2800    -0.6810 o          1 6B7      -0.711000
@<TRIPOS>BOND
     1     1    21 1   
     2     1    22 1   
     3     1    23 1   
     4     1    24 1   
     5     2     3 1   
     6     2     4 2   
     7     2    21 1   
     8     3     5 1   
     9     3     6 1   
    10     3    25 1   
    11     4    19 1   
    12     5    15 2   
    13     5    26 1   
    14     6     7 1   
    15     6    17 1   
    16     6    27 1   
    17     7    28 1   
    18     7    29 1   
    19     7    30 1   
    20     8    16 1   
    21     8    18 1   
    22     9    10 2   
    23     9    11 1   
    24     9    16 1   
    25    11    12 1   
    26    12    13 1   
    27    12    31 1   
    28    12    32 1   
    29    13    14 1   
    30    13    33 1   
    31    13    34 1   
    32    14    35 1   
    33    14    36 1   
    34    14    37 1   
    35    16    38 1   
    36    16    39 1   
    37    17    40 1   
    38    18    19 1   
    39    18    21 1   
    40    18    41 1   
    41    19    20 1   
    42    19    42 1   
    43    20    44 1   
    44    20    45 1   
    45    21    43 1   
@<TRIPOS>SUBSTRUCTURE
     1 6B7         1 TEMP              0 ****  ****    0 ROOT
