@<TRIPOS>MOLECULE
6B8
   33    33     1     0     0
SMALL
No Charge or Current Charge


@<TRIPOS>ATOM
      1 OXT          1.7290     3.1470    -0.5930 o          1 6B8      -0.691500
      2 C05          2.0830     2.0930    -0.0680 c          1 6B8       0.643700
      3 O            3.1710     2.0050     0.4940 o          1 6B8      -0.691500
      4 C04          1.1130     0.8860    -0.0940 ce         1 6B8       0.379300
      5 C09          1.5230    -0.3460     0.7290 c5         1 6B8      -0.022000
      6 S17          3.0670    -1.1670     0.0440 ss         1 6B8      -0.348000
      7 C18          3.3720    -2.4690     1.3170 c3         1 6B8       0.015900
      8 C10          0.2630    -1.2480     0.4800 c5         1 6B8      -0.085700
      9 C11          0.2980    -2.1600    -0.7810 c3         1 6B8      -0.085100
     10 C12         -0.8090    -0.1100     0.4620 c5         1 6B8       0.095500
     11 N1          -0.1760     0.9840    -0.3110 n2         1 6B8      -0.592900
     12 C13         -2.2450    -0.4280    -0.0640 c3         1 6B8      -0.191700
     13 C02         -2.2850    -0.5360    -1.5990 c          1 6B8       0.590900
     14 O01         -2.6570    -1.5440    -2.1950 o          1 6B8      -0.562100
     15 C14         -3.2930     0.6230     0.4010 c3         1 6B8       0.174300
     16 O16         -3.4070     0.5750     1.8280 oh         1 6B8      -0.649000
     17 C15         -4.7080     0.4030    -0.1800 c3         1 6B8      -0.131100
     18 H3           1.6540    -0.0870     1.7880 h1         1 6B8       0.081700
     19 H4           3.5250    -2.0000     2.2970 h1         1 6B8       0.045033
     20 H5           2.5110    -3.1470     1.3710 h1         1 6B8       0.045033
     21 H6           4.2670    -3.0450     1.0490 h1         1 6B8       0.045033
     22 H7           0.0970    -1.9210     1.3300 hc         1 6B8       0.035700
     23 H8           1.0760    -2.9280    -0.7080 hc         1 6B8       0.037367
     24 H9          -0.6440    -2.7080    -0.8950 hc         1 6B8       0.037367
     25 H10          0.4740    -1.5860    -1.6990 hc         1 6B8       0.037367
     26 H11         -0.9220     0.2370     1.5000 h1         1 6B8       0.061700
     27 H14         -2.5560    -1.4010     0.3370 hc         1 6B8       0.047700
     28 H15         -1.9760     0.3740    -2.1600 h4         1 6B8       0.031200
     29 H16         -2.9500     1.6220     0.0860 h1         1 6B8       0.104700
     30 H17         -3.7900    -0.2990     2.0530 ho         1 6B8       0.425000
     31 H18         -5.0680    -0.6110     0.0300 hc         1 6B8       0.038367
     32 H19         -5.4180     1.1160     0.2570 hc         1 6B8       0.038367
     33 H20         -4.7200     0.5560    -1.2660 hc         1 6B8       0.038367
@<TRIPOS>BOND
     1     1     2 1   
     2     2     3 1   
     3     2     4 1   
     4     4     5 1   
     5     4    11 2   
     6     5     6 1   
     7     5     8 1   
     8     5    18 1   
     9     6     7 1   
    10     7    19 1   
    11     7    20 1   
    12     7    21 1   
    13     8     9 1   
    14     8    10 1   
    15     8    22 1   
    16     9    23 1   
    17     9    24 1   
    18     9    25 1   
    19    10    11 1   
    20    10    12 1   
    21    10    26 1   
    22    12    13 1   
    23    12    15 1   
    24    12    27 1   
    25    13    14 2   
    26    13    28 1   
    27    15    16 1   
    28    15    17 1   
    29    15    29 1   
    30    16    30 1   
    31    17    31 1   
    32    17    32 1   
    33    17    33 1   
@<TRIPOS>SUBSTRUCTURE
     1 6B8         1 TEMP              0 ****  ****    0 ROOT
