@<TRIPOS>MOLECULE
6B8
   33    33     1     0     0
SMALL
abcg2


@<TRIPOS>ATOM
      1 OXT          1.7990     2.6190    -1.3020 o          1 6B8      -0.691500
      2 C05          1.9880     2.0230    -0.2310 c          1 6B8       0.643700
      3 O            2.8500     2.2390     0.6390 o          1 6B8      -0.691500
      4 C04          1.0390     0.8900     0.1150 ce         1 6B8       0.379300
      5 C09          1.4820    -0.4080     0.7520 c5         1 6B8      -0.022000
      6 S17          3.0550    -1.0210     0.1020 ss         1 6B8      -0.348000
      7 C18          3.3150    -2.4120     1.2240 c3         1 6B8       0.015900
      8 C10          0.2320    -1.2860     0.5490 c5         1 6B8      -0.085700
      9 C11          0.2520    -2.1010    -0.7350 c3         1 6B8      -0.085100
     10 C12         -0.8490    -0.1820     0.5900 c5         1 6B8       0.095500
     11 N1          -0.2200     1.0080     0.0250 n2         1 6B8      -0.592900
     12 C13         -2.2120    -0.4660    -0.0540 c3         1 6B8      -0.191700
     13 C02         -2.1410    -0.4520    -1.5560 c          1 6B8       0.590900
     14 O01         -2.6890    -1.2490    -2.2790 o          1 6B8      -0.562100
     15 C14         -3.2540     0.5960     0.4020 c3         1 6B8       0.174300
     16 O16         -3.3390     0.6380     1.8080 oh         1 6B8      -0.649000
     17 C15         -4.6270     0.3750    -0.2170 c3         1 6B8      -0.131100
     18 H3           1.6250    -0.2210     1.8240 h1         1 6B8       0.081700
     19 H4           3.3410    -2.0750     2.2600 h1         1 6B8       0.045033
     20 H5           2.5440    -3.1730     1.1120 h1         1 6B8       0.045033
     21 H6           4.2780    -2.8570     0.9780 h1         1 6B8       0.045033
     22 H7           0.1010    -1.9670     1.3930 hc         1 6B8       0.035700
     23 H8           1.0840    -2.8040    -0.7370 hc         1 6B8       0.037367
     24 H9          -0.6620    -2.6880    -0.8310 hc         1 6B8       0.037367
     25 H10          0.3600    -1.4800    -1.6260 hc         1 6B8       0.037367
     26 H11         -1.0490     0.0320     1.6460 h1         1 6B8       0.061700
     27 H14         -2.5750    -1.4500     0.2640 hc         1 6B8       0.047700
     28 H15         -1.5670     0.3900    -1.9830 h4         1 6B8       0.031200
     29 H16         -2.8830     1.5810     0.1050 h1         1 6B8       0.104700
     30 H17         -3.7180    -0.1940     2.1140 ho         1 6B8       0.425000
     31 H18         -4.9950    -0.6340    -0.0170 hc         1 6B8       0.038367
     32 H19         -5.3390     1.0860     0.2030 hc         1 6B8       0.038367
     33 H20         -4.6240     0.5220    -1.2960 hc         1 6B8       0.038367
@<TRIPOS>BOND
     1     1     2 1   
     2     2     3 1   
     3     2     4 1   
     4     4     5 1   
     5     4    11 2   
     6     5     6 1   
     7     5     8 1   
     8     5    18 1   
     9     6     7 1   
    10     7    19 1   
    11     7    20 1   
    12     7    21 1   
    13     8     9 1   
    14     8    10 1   
    15     8    22 1   
    16     9    23 1   
    17     9    24 1   
    18     9    25 1   
    19    10    11 1   
    20    10    12 1   
    21    10    26 1   
    22    12    13 1   
    23    12    15 1   
    24    12    27 1   
    25    13    14 2   
    26    13    28 1   
    27    15    16 1   
    28    15    17 1   
    29    15    29 1   
    30    16    30 1   
    31    17    31 1   
    32    17    32 1   
    33    17    33 1   
@<TRIPOS>SUBSTRUCTURE
     1 6B8         1 TEMP              0 ****  ****    0 ROOT
