@<TRIPOS>MOLECULE
6B9
   40    43     1     0     0
SMALL
No Charge or Current Charge


@<TRIPOS>ATOM
      1 O           -0.4060    -0.5350     2.6040 o          1 6B9      -0.692000
      2 C7           0.4480     0.3140     2.3950 c          1 6B9       0.707600
      3 C3           1.2120     0.2700     1.0900 ca         1 6B9      -0.114600
      4 C4           2.6160     0.4120     1.1190 ca         1 6B9      -0.053000
      5 C5           3.3780     0.3780    -0.0620 ca         1 6B9       0.092400
      6 N            4.7780     0.5260     0.0270 ne         1 6B9      -0.526100
      7 C6           5.6120     0.0100    -0.8270 c2         1 6B9       0.446100
      8 S            7.3610     0.2780    -0.6210 sh         1 6B9      -0.296000
      9 C            2.7200     0.2260    -1.2980 ca         1 6B9      -0.153000
     10 O1           0.7650     1.1660     3.2120 o          1 6B9      -0.692000
     11 C8          -0.9000     0.0040    -0.2580 cc         1 6B9       0.218000
     12 C2           0.5600     0.1050    -0.1590 ca         1 6B9      -0.061000
     13 C1           1.3230     0.0940    -1.3430 ca         1 6B9      -0.115000
     14 C16         -1.7800     1.1700    -0.1320 ca         1 6B9      -0.139000
     15 C17         -1.2580     2.4610     0.1010 ca         1 6B9       0.023000
     16 C18         -2.1240     3.5640     0.2170 ca         1 6B9      -0.246000
     17 C19         -3.5080     3.3870     0.1010 ca         1 6B9       0.180100
     18 O4          -4.3450     4.4530     0.2130 oh         1 6B9      -0.535100
     19 C20         -4.0330     2.1120    -0.1350 ca         1 6B9      -0.195000
     20 C15         -3.1710     1.0130    -0.2510 ca         1 6B9       0.245000
     21 O3          -3.7050    -0.2240    -0.4930 os         1 6B9      -0.299000
     22 C10         -2.9100    -1.3210    -0.6250 cd         1 6B9       0.257000
     23 C11         -3.5140    -2.5230    -0.8720 cc         1 6B9      -0.399200
     24 C12         -2.7490    -3.7520    -1.0280 c          1 6B9       0.591500
     25 O2          -3.2880    -4.8250    -1.2550 o          1 6B9      -0.607100
     26 C13         -1.2950    -3.6190    -0.8880 cc         1 6B9      -0.326200
     27 C14         -0.6530    -2.4220    -0.6390 cd         1 6B9      -0.062200
     28 C9          -1.4780    -1.2400    -0.5110 cd         1 6B9      -0.186800
     29 H1           3.1240     0.5410     2.0720 ha         1 6B9       0.153000
     30 H2           5.2670    -0.6100    -1.6560 h5         1 6B9      -0.019200
     31 H3           7.7310    -0.4490    -1.6990 hs         1 6B9       0.185800
     32 H4           3.2780     0.2250    -2.2300 ha         1 6B9       0.098000
     33 H6           0.8270    -0.0130    -2.3050 ha         1 6B9       0.104000
     34 H7          -0.1860     2.6200     0.1910 ha         1 6B9       0.136000
     35 H8          -1.7070     4.5520     0.3980 ha         1 6B9       0.112000
     36 H9          -3.8000     5.2520     0.3750 ho         1 6B9       0.464000
     37 H10         -5.1050     1.9720    -0.2310 ha         1 6B9       0.140000
     38 H11         -4.5870    -2.6130    -0.9660 ha         1 6B9       0.196000
     39 H13         -0.7380    -4.5430    -0.9970 ha         1 6B9       0.183000
     40 H14          0.4310    -2.3990    -0.5420 ha         1 6B9       0.187000
@<TRIPOS>BOND
     1     1     2 1   
     2     2     3 1   
     3     2    10 1   
     4     3     4 ar  
     5     3    12 ar  
     6     4     5 ar  
     7     4    29 1   
     8     5     6 1   
     9     5     9 ar  
    10     6     7 2   
    11     7     8 1   
    12     7    30 1   
    13     8    31 1   
    14     9    13 ar  
    15     9    32 1   
    16    11    12 1   
    17    11    14 1   
    18    11    28 2   
    19    12    13 ar  
    20    13    33 1   
    21    14    15 ar  
    22    14    20 ar  
    23    15    16 ar  
    24    15    34 1   
    25    16    17 ar  
    26    16    35 1   
    27    17    18 1   
    28    17    19 ar  
    29    18    36 1   
    30    19    20 ar  
    31    19    37 1   
    32    20    21 1   
    33    21    22 1   
    34    22    23 2   
    35    22    28 1   
    36    23    24 1   
    37    23    38 1   
    38    24    25 2   
    39    24    26 1   
    40    26    27 2   
    41    26    39 1   
    42    27    28 1   
    43    27    40 1   
@<TRIPOS>SUBSTRUCTURE
     1 6B9         1 TEMP              0 ****  ****    0 ROOT
