@<TRIPOS>MOLECULE
6B9
   40    43     1     0     0
SMALL
abcg2


@<TRIPOS>ATOM
      1 O           -0.6890    -0.0580     2.3800 o          1 6B9      -0.692000
      2 C7           0.5380     0.1370     2.4710 c          1 6B9       0.707600
      3 C3           1.2810     0.2300     1.1480 ca         1 6B9      -0.114600
      4 C4           2.6570     0.4070     1.1260 ca         1 6B9      -0.053000
      5 C5           3.3660     0.4710    -0.0700 ca         1 6B9       0.092400
      6 N            4.7500     0.6490    -0.0020 ne         1 6B9      -0.526100
      7 C6           5.4960     0.0680    -0.8410 c2         1 6B9       0.446100
      8 S            7.2190     0.3500    -0.7980 sh         1 6B9      -0.296000
      9 C            2.6640     0.3910    -1.2740 ca         1 6B9      -0.153000
     10 O1           1.2080     0.2630     3.5100 o          1 6B9      -0.692000
     11 C8          -0.8810    -0.0180    -0.1360 cc         1 6B9       0.218000
     12 C2           0.5910     0.1340    -0.0620 ca         1 6B9      -0.061000
     13 C1           1.2900     0.2210    -1.2620 ca         1 6B9      -0.115000
     14 C16         -1.7120     1.1450    -0.0980 ca         1 6B9      -0.139000
     15 C17         -1.2290     2.4410     0.1330 ca         1 6B9       0.023000
     16 C18         -2.0730     3.5240     0.1720 ca         1 6B9      -0.246000
     17 C19         -3.4510     3.3400    -0.0190 ca         1 6B9       0.180100
     18 O4          -4.3170     4.3580     0.0140 oh         1 6B9      -0.535100
     19 C20         -3.9630     2.0710    -0.2550 ca         1 6B9      -0.195000
     20 C15         -3.0900     0.9970    -0.2930 ca         1 6B9       0.245000
     21 O3          -3.6310    -0.2120    -0.5290 os         1 6B9      -0.299000
     22 C10         -2.8720    -1.3230    -0.6240 cd         1 6B9       0.257000
     23 C11         -3.5040    -2.4960    -0.8980 cc         1 6B9      -0.399200
     24 C12         -2.7670    -3.7300    -1.0090 c          1 6B9       0.591500
     25 O2          -3.3120    -4.8120    -1.2570 o          1 6B9      -0.607100
     26 C13         -1.3240    -3.6290    -0.8050 cc         1 6B9      -0.326200
     27 C14         -0.7180    -2.4550    -0.5350 cd         1 6B9      -0.062200
     28 C9          -1.4550    -1.2310    -0.4350 cd         1 6B9      -0.186800
     29 H1           3.1950     0.4890     2.0620 ha         1 6B9       0.153000
     30 H2           5.1510    -0.6230    -1.6130 h5         1 6B9      -0.019200
     31 H3           7.5350    -0.4860    -1.7920 hs         1 6B9       0.185800
     32 H4           3.1820     0.4880    -2.2200 ha         1 6B9       0.098000
     33 H6           0.7530     0.1670    -2.2020 ha         1 6B9       0.104000
     34 H7          -0.1690     2.5910     0.2830 ha         1 6B9       0.136000
     35 H8          -1.6760     4.5150     0.3540 ha         1 6B9       0.112000
     36 H9          -3.8600     5.1920     0.1720 ho         1 6B9       0.464000
     37 H10         -5.0240     1.9210    -0.4070 ha         1 6B9       0.140000
     38 H11         -4.5790    -2.5130    -1.0340 ha         1 6B9       0.196000
     39 H13         -0.7400    -4.5390    -0.8740 ha         1 6B9       0.183000
     40 H14          0.3530    -2.4210    -0.3860 ha         1 6B9       0.187000
@<TRIPOS>BOND
     1     1     2 1   
     2     2     3 1   
     3     2    10 1   
     4     3     4 ar  
     5     3    12 ar  
     6     4     5 ar  
     7     4    29 1   
     8     5     6 1   
     9     5     9 ar  
    10     6     7 2   
    11     7     8 1   
    12     7    30 1   
    13     8    31 1   
    14     9    13 ar  
    15     9    32 1   
    16    11    12 1   
    17    11    14 1   
    18    11    28 2   
    19    12    13 ar  
    20    13    33 1   
    21    14    15 ar  
    22    14    20 ar  
    23    15    16 ar  
    24    15    34 1   
    25    16    17 ar  
    26    16    35 1   
    27    17    18 1   
    28    17    19 ar  
    29    18    36 1   
    30    19    20 ar  
    31    19    37 1   
    32    20    21 1   
    33    21    22 1   
    34    22    23 2   
    35    22    28 1   
    36    23    24 1   
    37    23    38 1   
    38    24    25 2   
    39    24    26 1   
    40    26    27 2   
    41    26    39 1   
    42    27    28 1   
    43    27    40 1   
@<TRIPOS>SUBSTRUCTURE
     1 6B9         1 TEMP              0 ****  ****    0 ROOT
