@<TRIPOS>MOLECULE
6BB
   47    50     1     0     0
SMALL
No Charge or Current Charge


@<TRIPOS>ATOM
      1 C1           0.6680     0.9510    -0.0540 cc         1 6BB      -0.151000
      2 C2          -0.2450     2.0800     0.2380 ca         1 6BB       0.015000
      3 C3           0.2710     3.3500     0.5870 ca         1 6BB      -0.135000
      4 C11         -5.7760    -2.6390    -1.1390 c6         1 6BB       0.159800
      5 C12         -5.4760    -1.1530    -0.8210 c6         1 6BB      -0.072400
      6 C13          0.4160    -0.3820    -0.4710 cc         1 6BB       0.279900
      7 C14          2.0280     1.0600     0.0650 cd         1 6BB      -0.145000
      8 C15          3.8510    -0.4120    -0.3100 ca         1 6BB      -0.035200
      9 C16          4.6050    -0.4640     0.8810 ca         1 6BB       0.198000
     10 C17          5.9950    -0.6630     0.8340 ca         1 6BB      -0.149000
     11 C18          6.6430    -0.8130    -0.4050 ca         1 6BB      -0.078000
     12 C19          5.8970    -0.7650    -1.5950 ca         1 6BB      -0.119000
     13 C20          4.5050    -0.5660    -1.5490 ca         1 6BB      -0.089000
     14 C4          -0.5970     4.4200     0.8570 ca         1 6BB       0.297900
     15 N1          -1.9400     4.3090     0.8040 nb         1 6BB      -0.638000
     16 C5          -2.4530     3.1010     0.4750 ca         1 6BB       0.251900
     17 C6          -1.6600     1.9580     0.1840 ca         1 6BB       0.105100
     18 C7          -3.6610     0.5580    -0.2110 c3         1 6BB       0.166600
     19 C8          -3.9610    -0.9260    -0.5640 c6         1 6BB      -0.064700
     20 C9          -3.4680    -1.9080     0.5380 c6         1 6BB      -0.072400
     21 C10         -3.8240    -3.3730     0.1820 c6         1 6BB       0.159800
     22 N2          -5.2770    -3.5300    -0.0640 n7         1 6BB      -0.863400
     23 N3           1.4980    -1.1200    -0.6310 nd         1 6BB      -0.506800
     24 N4           2.4730    -0.2150    -0.2730 na         1 6BB       0.224000
     25 F1           4.0000    -0.3270     2.0840 f          1 6BB      -0.153000
     26 H1           1.3370     3.5350     0.6490 ha         1 6BB       0.119000
     27 H3          -5.2980    -2.9130    -2.0910 h1         1 6BB       0.030450
     28 H4          -5.8170    -0.5250    -1.6560 hc         1 6BB       0.051700
     29 H5          -6.0570    -0.8450     0.0590 hc         1 6BB       0.051700
     30 H6          -0.5360    -0.8490    -0.6800 h4         1 6BB       0.051100
     31 H7           2.6910     1.8680     0.3490 h4         1 6BB       0.158000
     32 H8           6.5670    -0.7010     1.7580 ha         1 6BB       0.138000
     33 H9           7.7200    -0.9670    -0.4420 ha         1 6BB       0.123000
     34 H10          6.3970    -0.8820    -2.5540 ha         1 6BB       0.125000
     35 H11          3.9340    -0.5310    -2.4750 ha         1 6BB       0.128000
     36 H12         -0.2020     5.4000     1.1230 h4         1 6BB       0.020100
     37 H13         -3.5400     3.0580     0.4480 h4         1 6BB       0.021100
     38 H14         -4.1390     0.8030     0.7460 h1         1 6BB       0.037700
     39 H15         -4.0870     1.2040    -0.9910 h1         1 6BB       0.037700
     40 H16         -3.4170    -1.1380    -1.4960 hc         1 6BB       0.056700
     41 H17         -2.3820    -1.8220     0.6720 hc         1 6BB       0.051700
     42 H18         -3.9220    -1.6470     1.5030 hc         1 6BB       0.051700
     43 H19         -3.2660    -3.6770    -0.7160 h1         1 6BB       0.030450
     44 H20         -3.5170    -4.0360     1.0040 h1         1 6BB       0.030450
     45 H21         -5.4650    -4.5060    -0.3280 hn         1 6BB       0.411000
     46 O1          -2.2370     0.7410    -0.1350 os         1 6BB      -0.342100
     47 H2          -6.8600    -2.7790    -1.2580 h1         1 6BB       0.030450
@<TRIPOS>BOND
     1     1     2 1   
     2     1     6 1   
     3     1     7 2   
     4     2     3 ar  
     5     2    17 ar  
     6     3    14 ar  
     7     3    26 1   
     8     4     5 1   
     9     4    22 1   
    10     4    27 1   
    11     4    47 1   
    12     5    19 1   
    13     5    28 1   
    14     5    29 1   
    15     6    23 2   
    16     6    30 1   
    17     7    24 1   
    18     7    31 1   
    19     8     9 ar  
    20     8    13 ar  
    21     8    24 1   
    22     9    10 ar  
    23     9    25 1   
    24    10    11 ar  
    25    10    32 1   
    26    11    12 ar  
    27    11    33 1   
    28    12    13 ar  
    29    12    34 1   
    30    13    35 1   
    31    14    15 ar  
    32    14    36 1   
    33    15    16 ar  
    34    16    17 ar  
    35    16    37 1   
    36    17    46 1   
    37    18    19 1   
    38    18    38 1   
    39    18    39 1   
    40    18    46 1   
    41    19    20 1   
    42    19    40 1   
    43    20    21 1   
    44    20    41 1   
    45    20    42 1   
    46    21    22 1   
    47    21    43 1   
    48    21    44 1   
    49    22    45 1   
    50    23    24 1   
@<TRIPOS>SUBSTRUCTURE
     1 6BB         1 TEMP              0 ****  ****    0 ROOT
