@<TRIPOS>MOLECULE
6BB
   47    50     1     0     0
SMALL
bcc


@<TRIPOS>ATOM
      1 C1           0.5520     1.1960    -0.5000 cc         1 6BB      -0.216300
      2 C2          -0.3920     2.2860    -0.2710 ca         1 6BB       0.015000
      3 C3           0.0580     3.5870    -0.0730 ca         1 6BB      -0.218300
      4 C11         -5.5320    -2.7720    -0.4850 c6         1 6BB       0.159800
      5 C12         -5.3040    -1.2700    -0.3840 c6         1 6BB      -0.072400
      6 C13          0.3970    -0.0330    -1.1880 cc         1 6BB       0.345200
      7 C14          1.8670     1.1700    -0.0850 cd         1 6BB      -0.112300
      8 C15          3.7190    -0.4300    -0.3380 ca         1 6BB      -0.035200
      9 C16          3.9860    -1.6890     0.1860 ca         1 6BB       0.162900
     10 C17          5.2790    -2.1320     0.3660 ca         1 6BB      -0.167000
     11 C18          6.3340    -1.2930     0.0330 ca         1 6BB      -0.096000
     12 C19          6.0870    -0.0270    -0.4790 ca         1 6BB      -0.137000
     13 C20          4.7820     0.3990    -0.6720 ca         1 6BB      -0.107000
     14 C4          -0.8450     4.6080     0.1710 ca         1 6BB       0.363200
     15 N1          -2.1540     4.4120     0.2190 nb         1 6BB      -0.638000
     16 C5          -2.6090     3.1790     0.0280 ca         1 6BB       0.317200
     17 C6          -1.7810     2.0840    -0.2170 ca         1 6BB       0.039800
     18 C7          -3.6100     0.5500    -0.2710 c3         1 6BB       0.143400
     19 C8          -3.8120    -0.9440    -0.4360 c6         1 6BB      -0.064700
     20 C9          -3.0650    -1.7600     0.6190 c6         1 6BB      -0.072400
     21 C10         -3.3840    -3.2410     0.4790 c6         1 6BB       0.159800
     22 N2          -4.8160    -3.4560     0.5770 n7         1 6BB      -0.808200
     23 N3           1.5100    -0.7300    -1.1950 nd         1 6BB      -0.506800
     24 N4           2.3930     0.0080    -0.5140 na         1 6BB       0.173300
     25 F1           2.9690    -2.4790     0.5390 f          1 6BB      -0.117900
     26 H1           1.1160     3.8120    -0.1200 ha         1 6BB       0.137000
     27 H3          -5.2200    -3.1100    -1.4880 h1         1 6BB       0.030450
     28 H4          -5.8330    -0.7650    -1.1960 hc         1 6BB       0.051700
     29 H5          -5.7290    -0.9060     0.5570 hc         1 6BB       0.051700
     30 H6          -0.4770    -0.4160    -1.6880 h4         1 6BB       0.051100
     31 H7           2.4410     1.8680     0.5040 h4         1 6BB       0.176000
     32 H8           5.4570    -3.1170     0.7780 ha         1 6BB       0.156000
     33 H9           7.3490    -1.6350     0.1760 ha         1 6BB       0.141000
     34 H10          6.9090     0.6260    -0.7410 ha         1 6BB       0.143000
     35 H11          4.5800     1.3750    -1.0930 ha         1 6BB       0.146000
     36 H12         -0.4940     5.6220     0.3240 h4         1 6BB       0.020100
     37 H13         -3.6850     3.0580     0.0750 h4         1 6BB       0.021100
     38 H14         -3.9730     0.8730     0.7130 h1         1 6BB       0.037700
     39 H15         -4.1790     1.0940    -1.0340 h1         1 6BB       0.037700
     40 H16         -3.4380    -1.2340    -1.4270 hc         1 6BB       0.056700
     41 H17         -1.9870    -1.6130     0.5320 hc         1 6BB       0.051700
     42 H18         -3.3600    -1.4190     1.6180 hc         1 6BB       0.051700
     43 H19         -2.9690    -3.6020    -0.4780 h1         1 6BB       0.030450
     44 H20         -2.8870    -3.8050     1.2710 h1         1 6BB       0.030450
     45 H21         -5.0120    -4.4470     0.5310 hn         1 6BB       0.355800
     46 O1          -2.2240     0.8340    -0.3990 os         1 6BB      -0.318900
     47 H2          -6.5980    -2.9920    -0.3940 h1         1 6BB       0.030450
@<TRIPOS>BOND
     1     1     2 1   
     2     1     6 1   
     3     1     7 2   
     4     2     3 ar  
     5     2    17 ar  
     6     3    14 ar  
     7     3    26 1   
     8     4     5 1   
     9     4    22 1   
    10     4    27 1   
    11     4    47 1   
    12     5    19 1   
    13     5    28 1   
    14     5    29 1   
    15     6    23 2   
    16     6    30 1   
    17     7    24 1   
    18     7    31 1   
    19     8     9 ar  
    20     8    13 ar  
    21     8    24 1   
    22     9    10 ar  
    23     9    25 1   
    24    10    11 ar  
    25    10    32 1   
    26    11    12 ar  
    27    11    33 1   
    28    12    13 ar  
    29    12    34 1   
    30    13    35 1   
    31    14    15 ar  
    32    14    36 1   
    33    15    16 ar  
    34    16    17 ar  
    35    16    37 1   
    36    17    46 1   
    37    18    19 1   
    38    18    38 1   
    39    18    39 1   
    40    18    46 1   
    41    19    20 1   
    42    19    40 1   
    43    20    21 1   
    44    20    41 1   
    45    20    42 1   
    46    21    22 1   
    47    21    43 1   
    48    21    44 1   
    49    22    45 1   
    50    23    24 1   
@<TRIPOS>SUBSTRUCTURE
     1 6BB         1 TEMP              0 ****  ****    0 ROOT
