@<TRIPOS>MOLECULE
6BC
   29    31     1     0     0
SMALL
No Charge or Current Charge


@<TRIPOS>ATOM
      1 Cl17        -0.6130    -2.4840     0.2130 cl         1 6BC      -0.117000
      2 C16          0.3390    -1.0260     0.2830 cc         1 6BC       0.519000
      3 N18          1.5690    -1.1390    -0.2220 nd         1 6BC      -0.660000
      4 C4           2.1960     0.0770    -0.1010 cd         1 6BC       0.468500
      5 C8          -0.2710     0.1690     0.8750 cc         1 6BC      -0.224300
      6 C6           0.4690     1.3480     0.9400 cd         1 6BC       0.227100
      7 O7           0.0510     2.5270     1.4460 oh         1 6BC      -0.497100
      8 N5           1.7510     1.2640     0.4230 na         1 6BC       0.042900
      9 N19          2.6460     2.3220     0.3920 nd         1 6BC      -0.618100
     10 C20          3.6780     1.7000    -0.1900 cc         1 6BC       0.463500
     11 C1           3.4580     0.3370    -0.5100 cc         1 6BC      -0.209300
     12 C2           4.4050    -0.5110    -1.1260 cg         1 6BC       0.334700
     13 N3           5.2070    -1.1880    -1.6360 n1         1 6BC      -0.453000
     14 C9          -1.7000     0.1020     1.3910 c3         1 6BC       0.041200
     15 C10         -2.7390     0.1320     0.2740 ca         1 6BC      -0.082300
     16 C15         -3.6960    -0.8960     0.1570 ca         1 6BC      -0.102500
     17 C14         -4.6490    -0.8660    -0.8750 ca         1 6BC      -0.107000
     18 C13         -4.6560     0.1940    -1.7960 ca         1 6BC      -0.106000
     19 C12         -3.7090     1.2260    -1.6830 ca         1 6BC      -0.107000
     20 C11         -2.7560     1.1960    -0.6510 ca         1 6BC      -0.102500
     21 H91C        -1.8320    -0.7850     2.0230 hc         1 6BC       0.068200
     22 H92C        -1.8970     0.9400     2.0710 hc         1 6BC       0.068200
     23 H20          4.5820     2.2670    -0.3700 h4         1 6BC       0.063800
     24 H15         -3.7010    -1.7230     0.8640 ha         1 6BC       0.109500
     25 H11         -2.0290     2.0010    -0.5710 ha         1 6BC       0.109500
     26 H14         -5.3830    -1.6650    -0.9610 ha         1 6BC       0.114000
     27 H13         -5.3940     0.2180    -2.5950 ha         1 6BC       0.114000
     28 H12         -3.7150     2.0490    -2.3940 ha         1 6BC       0.114000
     29 H7           0.8240     3.1280     1.3300 ho         1 6BC       0.526000
@<TRIPOS>BOND
     1     1     2 1   
     2     2     3 2   
     3     2     5 1   
     4     3     4 1   
     5     4     8 1   
     6     4    11 2   
     7     5     6 2   
     8     5    14 1   
     9     6     7 1   
    10     6     8 1   
    11     7    29 1   
    12     8     9 1   
    13     9    10 2   
    14    10    11 1   
    15    10    23 1   
    16    11    12 1   
    17    12    13 3   
    18    14    15 1   
    19    14    21 1   
    20    14    22 1   
    21    15    16 ar  
    22    15    20 ar  
    23    16    17 ar  
    24    16    24 1   
    25    17    18 ar  
    26    17    26 1   
    27    18    19 ar  
    28    18    27 1   
    29    19    20 ar  
    30    19    28 1   
    31    20    25 1   
@<TRIPOS>SUBSTRUCTURE
     1 6BC         1 TEMP              0 ****  ****    0 ROOT
