@<TRIPOS>MOLECULE
6BC
   29    31     1     0     0
SMALL
abcg2


@<TRIPOS>ATOM
      1 CL17        -0.5830    -2.4270    -0.0150 cl         1 6BC      -0.117000
      2 C16          0.3350    -0.9830     0.1740 cc         1 6BC       0.519000
      3 N18          1.5490    -1.0220    -0.2980 nd         1 6BC      -0.660000
      4 C4           2.2640     0.0860    -0.1560 cd         1 6BC       0.468500
      5 C8          -0.2870     0.1080     0.8160 cc         1 6BC      -0.224300
      6 C6           0.4890     1.2410     0.9370 cd         1 6BC       0.227100
      7 O7           0.0730     2.3490     1.4880 oh         1 6BC      -0.497100
      8 N5           1.7500     1.2010     0.4470 na         1 6BC       0.042900
      9 N19          2.6070     2.2320     0.5030 nd         1 6BC      -0.618100
     10 C20          3.7000     1.7810    -0.0710 cc         1 6BC       0.463500
     11 C1           3.5650     0.4490    -0.5090 cc         1 6BC      -0.209300
     12 C2           4.5130    -0.3600    -1.1570 cg         1 6BC       0.334700
     13 N3           5.2920    -1.0260    -1.6860 n1         1 6BC      -0.453000
     14 C9          -1.6960     0.0640     1.3300 c3         1 6BC       0.041200
     15 C10         -2.7380     0.0980     0.2360 ca         1 6BC      -0.082300
     16 C15         -3.8390    -0.7510     0.2910 ca         1 6BC      -0.102500
     17 C14         -4.8250    -0.7010    -0.6860 ca         1 6BC      -0.107000
     18 C13         -4.7180     0.1980    -1.7380 ca         1 6BC      -0.106000
     19 C12         -3.6200     1.0460    -1.8040 ca         1 6BC      -0.107000
     20 C11         -2.6390     0.9960    -0.8240 ca         1 6BC      -0.102500
     21 H91C        -1.8280    -0.8340     1.9380 hc         1 6BC       0.068200
     22 H92C        -1.8610     0.9010     2.0100 hc         1 6BC       0.068200
     23 H20          4.5690     2.4130    -0.1640 h4         1 6BC       0.063800
     24 H15         -3.9280    -1.4610     1.1050 ha         1 6BC       0.109500
     25 H11         -1.7900     1.6650    -0.8930 ha         1 6BC       0.109500
     26 H14         -5.6740    -1.3700    -0.6260 ha         1 6BC       0.114000
     27 H13         -5.4830     0.2360    -2.5030 ha         1 6BC       0.114000
     28 H12         -3.5260     1.7500    -2.6210 ha         1 6BC       0.114000
     29 H7           0.7620     3.0350     1.4760 ho         1 6BC       0.526000
@<TRIPOS>BOND
     1     1     2 1   
     2     2     3 2   
     3     2     5 1   
     4     3     4 1   
     5     4     8 1   
     6     4    11 2   
     7     5     6 2   
     8     5    14 1   
     9     6     7 1   
    10     6     8 1   
    11     7    29 1   
    12     8     9 1   
    13     9    10 2   
    14    10    11 1   
    15    10    23 1   
    16    11    12 1   
    17    12    13 3   
    18    14    15 1   
    19    14    21 1   
    20    14    22 1   
    21    15    16 ar  
    22    15    20 ar  
    23    16    17 ar  
    24    16    24 1   
    25    17    18 ar  
    26    17    26 1   
    27    18    19 ar  
    28    18    27 1   
    29    19    20 ar  
    30    19    28 1   
    31    20    25 1   
@<TRIPOS>SUBSTRUCTURE
     1 6BC         1 TEMP              0 ****  ****    0 ROOT
