@<TRIPOS>MOLECULE
6BD
   35    37     1     0     0
SMALL
bcc


@<TRIPOS>ATOM
      1 CAQ         -2.1080     1.1450     0.0070 ca         1 6BD      -0.118900
      2 CAH         -2.3380     2.5100     0.0350 ca         1 6BD      -0.083000
      3 CAD         -3.6550     2.9570     0.0640 ca         1 6BD      -0.137000
      4 CAF         -4.7150     2.0540     0.0640 ca         1 6BD      -0.137000
      5 CAJ         -4.4830     0.6820     0.0360 ca         1 6BD      -0.115000
      6 CAS         -3.1720     0.2350     0.0070 cp         1 6BD      -0.040500
      7 CAT         -2.6190    -1.1200    -0.0250 cp         1 6BD      -0.040500
      8 CAK         -3.2610    -2.3450    -0.0330 ca         1 6BD      -0.115000
      9 CAG         -2.4900    -3.5030    -0.0640 ca         1 6BD      -0.137000
     10 CAE         -1.1030    -3.4290    -0.0880 ca         1 6BD      -0.137000
     11 CAI         -0.4500    -2.2000    -0.0810 ca         1 6BD      -0.083000
     12 CAR         -1.2130    -1.0410    -0.0480 ca         1 6BD      -0.118900
     13 CAP         -0.8480     0.3870    -0.0250 cc         1 6BD       0.408500
     14 NAM          0.2780     0.9870    -0.0230 n2         1 6BD      -0.357200
     15 OAN          1.3350     0.1620    -0.0550 os         1 6BD      -0.191300
     16 CAL          2.5640     0.8960    -0.0280 c3         1 6BD       0.155400
     17 CAU          3.7060    -0.1000    -0.0630 c3         1 6BD      -0.208700
     18 CAA          3.6670    -1.0710     1.1160 c3         1 6BD      -0.060100
     19 CAO          5.0720     0.6270    -0.1340 c          1 6BD       0.935600
     20 OAC          5.0560     1.8700    -0.2310 o          1 6BD      -0.834300
     21 OAB          6.0830    -0.1000    -0.0960 o          1 6BD      -0.834300
     22 HAH         -1.5170     3.2150     0.0360 ha         1 6BD       0.158000
     23 HAD         -3.8580     4.0200     0.0860 ha         1 6BD       0.126000
     24 HAF         -5.7320     2.4230     0.0870 ha         1 6BD       0.120000
     25 HAJ         -5.3120    -0.0140     0.0360 ha         1 6BD       0.124500
     26 HAK         -4.3420    -2.4090    -0.0150 ha         1 6BD       0.124500
     27 HAG         -2.9770    -4.4700    -0.0690 ha         1 6BD       0.120000
     28 HAE         -0.5180    -4.3390    -0.1140 ha         1 6BD       0.126000
     29 HAI          0.6290    -2.1680    -0.1030 ha         1 6BD       0.158000
     30 HAL          2.6000     1.5670    -0.8900 h1         1 6BD       0.050200
     31 HALA         2.6020     1.5050     0.8800 h1         1 6BD       0.050200
     32 HAU          3.6150    -0.6900    -0.9850 hc         1 6BD       0.037700
     33 HAA          3.7110    -0.5360     2.0680 hc         1 6BD       0.017367
     34 HAAA         2.7620    -1.6780     1.1210 hc         1 6BD       0.017367
     35 HAAB         4.5190    -1.7460     1.0740 hc         1 6BD       0.017367
@<TRIPOS>BOND
     1     1     2 ar  
     2     1     6 ar  
     3     1    13 1   
     4     2     3 ar  
     5     2    22 1   
     6     3     4 ar  
     7     3    23 1   
     8     4     5 ar  
     9     4    24 1   
    10     5     6 ar  
    11     5    25 1   
    12     6     7 1   
    13     7     8 ar  
    14     7    12 ar  
    15     8     9 ar  
    16     8    26 1   
    17     9    10 ar  
    18     9    27 1   
    19    10    11 ar  
    20    10    28 1   
    21    11    12 ar  
    22    11    29 1   
    23    12    13 1   
    24    13    14 2   
    25    14    15 1   
    26    15    16 1   
    27    16    17 1   
    28    16    30 1   
    29    16    31 1   
    30    17    18 1   
    31    17    19 1   
    32    17    32 1   
    33    18    33 1   
    34    18    34 1   
    35    18    35 1   
    36    19    20 1   
    37    19    21 1   
@<TRIPOS>SUBSTRUCTURE
     1 6BD         1 TEMP              0 ****  ****    0 ROOT
