@<TRIPOS>MOLECULE
6BD
   35    37     1     0     0
SMALL
No Charge or Current Charge


@<TRIPOS>ATOM
      1 CAQ         -2.1640     1.1200    -0.0270 ca         1 6BD      -0.118900
      2 CAH         -2.3690     2.5100    -0.0230 ca         1 6BD      -0.065000
      3 CAD         -3.6960     2.9920    -0.0200 ca         1 6BD      -0.119000
      4 CAF         -4.7910     2.0960    -0.0200 ca         1 6BD      -0.119000
      5 CAJ         -4.5730     0.7030    -0.0230 ca         1 6BD      -0.097000
      6 CAS         -3.2460     0.2340    -0.0260 cp         1 6BD      -0.040500
      7 CAT         -2.6990    -1.1340    -0.0290 cp         1 6BD      -0.040500
      8 CAK         -3.3530    -2.3790    -0.0300 ca         1 6BD      -0.097000
      9 CAG         -2.5710    -3.5500    -0.0320 ca         1 6BD      -0.119000
     10 CAE         -1.1610    -3.4630    -0.0340 ca         1 6BD      -0.119000
     11 CAI         -0.5120    -2.2100    -0.0340 ca         1 6BD      -0.065000
     12 CAR         -1.2970    -1.0380    -0.0320 ca         1 6BD      -0.118900
     13 CAP         -0.8980     0.3850    -0.0300 cc         1 6BD       0.408500
     14 NAM          0.2820     0.9450    -0.0290 n2         1 6BD      -0.258700
     15 OAN          1.4010     0.0910    -0.0360 os         1 6BD      -0.313000
     16 CAL          2.6170     0.8590    -0.0140 c3         1 6BD       0.178600
     17 CAU          3.8070    -0.1240    -0.0240 c3         1 6BD      -0.208700
     18 CAA          3.8540    -1.0320     1.2320 c3         1 6BD      -0.060100
     19 CAO          5.1150     0.6640    -0.1990 c          1 6BD       0.725000
     20 OAC          5.4330     1.4700     0.6630 o          1 6BD      -0.729000
     21 OAB          5.7810     0.4560    -1.2020 o          1 6BD      -0.729000
     22 HAH         -1.5280     3.2000    -0.0240 ha         1 6BD       0.140000
     23 HAD         -3.8780     4.0650    -0.0180 ha         1 6BD       0.108000
     24 HAF         -5.8070     2.4840    -0.0170 ha         1 6BD       0.102000
     25 HAJ         -5.4090     0.0080    -0.0220 ha         1 6BD       0.106500
     26 HAK         -4.4390    -2.4360    -0.0280 ha         1 6BD       0.106500
     27 HAG         -3.0550    -4.5240    -0.0320 ha         1 6BD       0.102000
     28 HAE         -0.5670    -4.3740    -0.0360 ha         1 6BD       0.108000
     29 HAI          0.5740    -2.1730    -0.0360 ha         1 6BD       0.140000
     30 HAL          2.6760     1.5100    -0.8970 h1         1 6BD       0.050200
     31 HALA         2.6640     1.4910     0.8830 h1         1 6BD       0.050200
     32 HAU          3.6920    -0.7780    -0.8980 hc         1 6BD       0.037700
     33 HAA          3.9190    -0.4320     2.1480 hc         1 6BD       0.017367
     34 HAAA         2.9580    -1.6600     1.2970 hc         1 6BD       0.017367
     35 HAAB         4.7280    -1.6930     1.1930 hc         1 6BD       0.017367
@<TRIPOS>BOND
     1     1     2 ar  
     2     1     6 ar  
     3     1    13 1   
     4     2     3 ar  
     5     2    22 1   
     6     3     4 ar  
     7     3    23 1   
     8     4     5 ar  
     9     4    24 1   
    10     5     6 ar  
    11     5    25 1   
    12     6     7 1   
    13     7     8 ar  
    14     7    12 ar  
    15     8     9 ar  
    16     8    26 1   
    17     9    10 ar  
    18     9    27 1   
    19    10    11 ar  
    20    10    28 1   
    21    11    12 ar  
    22    11    29 1   
    23    12    13 1   
    24    13    14 2   
    25    14    15 1   
    26    15    16 1   
    27    16    17 1   
    28    16    30 1   
    29    16    31 1   
    30    17    18 1   
    31    17    19 1   
    32    17    32 1   
    33    18    33 1   
    34    18    34 1   
    35    18    35 1   
    36    19    20 1   
    37    19    21 1   
@<TRIPOS>SUBSTRUCTURE
     1 6BD         1 TEMP              0 ****  ****    0 ROOT
