@<TRIPOS>MOLECULE
6BE
   58    61     1     0     0
SMALL
No Charge or Current Charge


@<TRIPOS>ATOM
      1 C1          -4.3440     2.8850    -2.0360 ca         1 6BE       0.296900
      2 C2          -5.8340     1.3200    -1.2260 ca         1 6BE       0.250900
      3 C3          -4.7960     0.5250    -0.6690 ca         1 6BE       0.103100
      4 O1          -5.0700    -0.6580    -0.0040 os         1 6BE      -0.341100
      5 C11          3.1990     0.9190     0.4720 ca         1 6BE      -0.156000
      6 C12          3.9470    -0.1430    -0.0720 ca         1 6BE       0.306000
      7 C13          3.2630    -1.2900    -0.5250 ca         1 6BE      -0.156000
      8 C14          1.8610    -1.3690    -0.4420 ca         1 6BE      -0.078500
      9 C15          5.9940     1.1210    -0.8420 c6         1 6BE       0.201300
     10 C16          7.4670     1.3680    -0.3770 c6         1 6BE       0.155800
     11 C17          7.6890    -0.9730     0.2960 c6         1 6BE       0.155800
     12 C18          6.2210    -1.2690    -0.1550 c6         1 6BE       0.201300
     13 C19          9.7220     0.3920    -0.0740 c3         1 6BE       0.151100
     14 C20         -6.4100    -1.1470     0.1820 c3         1 6BE       0.164600
     15 C21         -6.3340    -2.4950     0.9390 c3         1 6BE      -0.063700
     16 C22         -7.7400    -2.9770     1.3600 c3         1 6BE      -0.088600
     17 C23         -5.5930    -3.5860     0.1270 c3         1 6BE      -0.088600
     18 N1          -5.6210     2.4760    -1.8950 nb         1 6BE      -0.640000
     19 C4          -3.4520     0.9610    -0.8170 ca         1 6BE       0.018000
     20 C5          -3.2500     2.1710    -1.5220 ca         1 6BE      -0.136000
     21 C6          -2.3000     0.2100    -0.2690 cc         1 6BE      -0.156000
     22 C7          -1.0040     0.5860    -0.5010 cd         1 6BE      -0.151000
     23 N2          -0.2710    -0.3850     0.1780 na         1 6BE       0.243000
     24 N3          -1.0070    -1.3700     0.8010 nd         1 6BE      -0.527800
     25 C8          -2.2330    -0.9720     0.5150 cc         1 6BE       0.280900
     26 C9           1.1200    -0.3010     0.0960 ca         1 6BE      -0.026200
     27 C10          1.7980     0.8440     0.5580 ca         1 6BE      -0.078500
     28 N4           5.3560    -0.0440    -0.1460 nh         1 6BE      -0.794400
     29 N5           8.3200     0.1440    -0.4730 n3         1 6BE      -0.712600
     30 H1          -4.1910     3.8180    -2.5760 h4         1 6BE       0.019100
     31 H2          -6.8800     1.0280    -1.1400 h4         1 6BE       0.020100
     32 H3           3.7080     1.8030     0.8430 ha         1 6BE       0.119000
     33 H4           3.8110    -2.1220    -0.9560 ha         1 6BE       0.119000
     34 H5           1.3490    -2.2600    -0.8010 ha         1 6BE       0.128500
     35 H6           5.4200     2.0420    -0.6690 h1         1 6BE       0.046200
     36 H7           5.9950     0.9430    -1.9280 h1         1 6BE       0.046200
     37 H8           7.8930     2.1780    -0.9870 h1         1 6BE       0.041200
     38 H9           7.4450     1.7290     0.6620 h1         1 6BE       0.041200
     39 H10          7.6790    -0.7300     1.3690 h1         1 6BE       0.041200
     40 H11          8.2800    -1.8940     0.1840 h1         1 6BE       0.041200
     41 H12          6.2460    -1.6990    -1.1680 h1         1 6BE       0.046200
     42 H13          5.8050    -2.0340     0.5160 h1         1 6BE       0.046200
     43 H14         10.3270    -0.5150    -0.2020 h1         1 6BE       0.033033
     44 H15         10.1660     1.1850    -0.6910 h1         1 6BE       0.033033
     45 H16          9.7820     0.7000     0.9790 h1         1 6BE       0.033033
     46 H17         -6.9980    -0.4300     0.7700 h1         1 6BE       0.036200
     47 H18         -6.9090    -1.2970    -0.7850 h1         1 6BE       0.036200
     48 H19         -5.7630    -2.3220     1.8600 hc         1 6BE       0.058700
     49 H20         -8.3680    -3.1670     0.4810 hc         1 6BE       0.038033
     50 H21         -7.6750    -3.9050     1.9420 hc         1 6BE       0.038033
     51 H22         -8.2390    -2.2240     1.9820 hc         1 6BE       0.038033
     52 H23         -4.5700    -3.2750    -0.1120 hc         1 6BE       0.038033
     53 H24         -5.5340    -4.5200     0.6980 hc         1 6BE       0.038033
     54 H25         -6.1160    -3.7930    -0.8150 hc         1 6BE       0.038033
     55 H26         -2.2590     2.5820    -1.6780 ha         1 6BE       0.120000
     56 H27         -0.5500     1.3980    -1.0550 h4         1 6BE       0.156000
     57 H28         -3.0480    -1.5690     0.8950 h4         1 6BE       0.049100
     58 H29          1.2400     1.6740     0.9880 ha         1 6BE       0.128500
@<TRIPOS>BOND
     1     1    18 ar  
     2     1    20 ar  
     3     1    30 1   
     4     2     3 ar  
     5     2    18 ar  
     6     2    31 1   
     7     3     4 1   
     8     3    19 ar  
     9     4    14 1   
    10     5     6 ar  
    11     5    27 ar  
    12     5    32 1   
    13     6     7 ar  
    14     6    28 1   
    15     7     8 ar  
    16     7    33 1   
    17     8    26 ar  
    18     8    34 1   
    19     9    10 1   
    20     9    28 1   
    21     9    35 1   
    22     9    36 1   
    23    10    29 1   
    24    10    37 1   
    25    10    38 1   
    26    11    12 1   
    27    11    29 1   
    28    11    39 1   
    29    11    40 1   
    30    12    28 1   
    31    12    41 1   
    32    12    42 1   
    33    13    29 1   
    34    13    43 1   
    35    13    44 1   
    36    13    45 1   
    37    14    15 1   
    38    14    46 1   
    39    14    47 1   
    40    15    16 1   
    41    15    17 1   
    42    15    48 1   
    43    16    49 1   
    44    16    50 1   
    45    16    51 1   
    46    17    52 1   
    47    17    53 1   
    48    17    54 1   
    49    19    20 ar  
    50    19    21 1   
    51    20    55 1   
    52    21    22 2   
    53    21    25 1   
    54    22    23 1   
    55    22    56 1   
    56    23    24 1   
    57    23    26 1   
    58    24    25 2   
    59    25    57 1   
    60    26    27 ar  
    61    27    58 1   
@<TRIPOS>SUBSTRUCTURE
     1 6BE         1 TEMP              0 ****  ****    0 ROOT
