@<TRIPOS>MOLECULE
6BE
   58    61     1     0     0
SMALL
abcg2


@<TRIPOS>ATOM
      1 C1          -4.8000     3.2600    -1.1660 ca         1 6BE       0.296900
      2 C2          -6.0300     1.3920    -0.7530 ca         1 6BE       0.250900
      3 C3          -4.9150     0.6840    -0.3060 ca         1 6BE       0.103100
      4 O1          -4.9540    -0.5860     0.1150 os         1 6BE      -0.341100
      5 C11          3.1800     1.1260    -0.3310 ca         1 6BE      -0.156000
      6 C12          3.8960    -0.0370    -0.0040 ca         1 6BE       0.306000
      7 C13          3.1500    -1.1350     0.4440 ca         1 6BE      -0.156000
      8 C14          1.7710    -1.0750     0.5640 ca         1 6BE      -0.078500
      9 C15          5.9120     0.5020    -1.2730 c6         1 6BE       0.201300
     10 C16          7.3720     0.8080    -1.0100 c6         1 6BE       0.155800
     11 C17          7.4520    -0.8930     0.6350 c6         1 6BE       0.155800
     12 C18          5.9890    -1.2240     0.4030 c6         1 6BE       0.201300
     13 C19          9.4810    -0.1240    -0.3690 c3         1 6BE       0.151100
     14 C20         -6.1590    -1.3290     0.0090 c3         1 6BE       0.164600
     15 C21         -5.8860    -2.7560     0.4520 c3         1 6BE      -0.063700
     16 C22         -7.1930    -3.5430     0.4120 c3         1 6BE      -0.088600
     17 C23         -4.8200    -3.4270    -0.4080 c3         1 6BE      -0.088600
     18 N1          -5.9760     2.6510    -1.1740 nb         1 6BE      -0.640000
     19 C4          -3.6650     1.3240    -0.2970 ca         1 6BE       0.018000
     20 C5          -3.6360     2.6430    -0.7380 ca         1 6BE      -0.136000
     21 C6          -2.4410     0.6520     0.1270 cc         1 6BE      -0.156000
     22 C7          -1.1630     0.9710    -0.2870 cd         1 6BE      -0.151000
     23 N2          -0.3180     0.1430     0.3550 na         1 6BE       0.243000
     24 N3          -0.9630    -0.6990     1.1660 nd         1 6BE      -0.527800
     25 C8          -2.2380    -0.4130     1.0350 cc         1 6BE       0.280900
     26 C9           1.0870     0.0850     0.2370 ca         1 6BE      -0.026200
     27 C10          1.8060     1.1890    -0.2080 ca         1 6BE      -0.078500
     28 N4           5.2820    -0.0580    -0.0860 nh         1 6BE      -0.794400
     29 N5           8.0730    -0.3790    -0.5670 n3         1 6BE      -0.712600
     30 H1          -4.7760     4.2890    -1.5090 h4         1 6BE       0.019100
     31 H2          -7.0080     0.9250    -0.7740 h4         1 6BE       0.020100
     32 H3           3.6990     2.0180    -0.6530 ha         1 6BE       0.119000
     33 H4           3.6320    -2.0690     0.6960 ha         1 6BE       0.119000
     34 H5           1.2330    -1.9490     0.9030 ha         1 6BE       0.128500
     35 H6           5.4140     1.4220    -1.5690 h1         1 6BE       0.046200
     36 H7           5.8320    -0.2000    -2.1170 h1         1 6BE       0.046200
     37 H8           7.8260     1.1690    -1.9360 h1         1 6BE       0.041200
     38 H9           7.4440     1.6250    -0.2700 h1         1 6BE       0.041200
     39 H10          7.5270    -0.1740     1.4700 h1         1 6BE       0.041200
     40 H11          7.9690    -1.8030     0.9470 h1         1 6BE       0.041200
     41 H12          5.9080    -2.0720    -0.2940 h1         1 6BE       0.046200
     42 H13          5.5640    -1.5390     1.3560 h1         1 6BE       0.046200
     43 H14          9.9900    -1.0410    -0.0690 h1         1 6BE       0.033033
     44 H15          9.9340     0.2190    -1.3000 h1         1 6BE       0.033033
     45 H16          9.6780     0.6370     0.4020 h1         1 6BE       0.033033
     46 H17         -6.9360    -0.8800     0.6390 h1         1 6BE       0.036200
     47 H18         -6.5200    -1.3190    -1.0270 h1         1 6BE       0.036200
     48 H19         -5.5370    -2.7250     1.4900 hc         1 6BE       0.058700
     49 H20         -7.5820    -3.6070    -0.6070 hc         1 6BE       0.038033
     50 H21         -7.0410    -4.5610     0.7710 hc         1 6BE       0.038033
     51 H22         -7.9620    -3.0830     1.0350 hc         1 6BE       0.038033
     52 H23         -3.8640    -2.9050    -0.3620 hc         1 6BE       0.038033
     53 H24         -4.6520    -4.4530    -0.0780 hc         1 6BE       0.038033
     54 H25         -5.1330    -3.4630    -1.4540 hc         1 6BE       0.038033
     55 H26         -2.7080     3.2000    -0.7400 ha         1 6BE       0.120000
     56 H27         -0.8190     1.6940    -1.0090 h4         1 6BE       0.156000
     57 H28         -2.9700    -0.9600     1.6070 h4         1 6BE       0.049100
     58 H29          1.3070     2.1210    -0.4420 ha         1 6BE       0.128500
@<TRIPOS>BOND
     1     1    18 ar  
     2     1    20 ar  
     3     1    30 1   
     4     2     3 ar  
     5     2    18 ar  
     6     2    31 1   
     7     3     4 1   
     8     3    19 ar  
     9     4    14 1   
    10     5     6 ar  
    11     5    27 ar  
    12     5    32 1   
    13     6     7 ar  
    14     6    28 1   
    15     7     8 ar  
    16     7    33 1   
    17     8    26 ar  
    18     8    34 1   
    19     9    10 1   
    20     9    28 1   
    21     9    35 1   
    22     9    36 1   
    23    10    29 1   
    24    10    37 1   
    25    10    38 1   
    26    11    12 1   
    27    11    29 1   
    28    11    39 1   
    29    11    40 1   
    30    12    28 1   
    31    12    41 1   
    32    12    42 1   
    33    13    29 1   
    34    13    43 1   
    35    13    44 1   
    36    13    45 1   
    37    14    15 1   
    38    14    46 1   
    39    14    47 1   
    40    15    16 1   
    41    15    17 1   
    42    15    48 1   
    43    16    49 1   
    44    16    50 1   
    45    16    51 1   
    46    17    52 1   
    47    17    53 1   
    48    17    54 1   
    49    19    20 ar  
    50    19    21 1   
    51    20    55 1   
    52    21    22 2   
    53    21    25 1   
    54    22    23 1   
    55    22    56 1   
    56    23    24 1   
    57    23    26 1   
    58    24    25 2   
    59    25    57 1   
    60    26    27 ar  
    61    27    58 1   
@<TRIPOS>SUBSTRUCTURE
     1 6BE         1 TEMP              0 ****  ****    0 ROOT
