@<TRIPOS>MOLECULE
6BF
   64    68     1     0     0
SMALL
No Charge or Current Charge


@<TRIPOS>ATOM
      1 C1          -6.6020    -7.4840     5.4940 ca         1 6BF       0.299900
      2 C2          -5.8760    -9.6740     5.5850 ca         1 6BF       0.256900
      3 C3          -5.2760    -9.5960     4.3000 ca         1 6BF       0.090100
      4 O1          -4.6060   -10.6770     3.7510 os         1 6BF      -0.362100
      5 C11         -2.7170    -9.0790    -3.1750 ca         1 6BF      -0.156500
      6 C12         -1.6320    -9.9510    -2.9540 ca         1 6BF       0.303000
      7 C13         -1.2850   -10.2760    -1.6300 ca         1 6BF      -0.156500
      8 C14         -2.0020    -9.7420    -0.5440 ca         1 6BF      -0.076000
      9 C15          0.5920   -10.3340    -4.0900 c6         1 6BF       0.199800
     10 C16          1.2860   -11.4180    -4.9790 c6         1 6BF       0.154800
     11 C17         -0.7780   -11.7560    -6.2470 c6         1 6BF       0.154800
     12 C18         -1.5150   -10.6800    -5.3840 c6         1 6BF       0.199800
     13 C19          1.3800   -12.5060    -7.2010 c3         1 6BF       0.150100
     14 C20         -3.5680   -14.3250     4.1480 c6         1 6BF      -0.071400
     15 C21         -2.7190   -15.2730     3.2640 c6         1 6BF       0.159300
     16 C22         -1.3820   -13.3770     2.4170 c6         1 6BF       0.159300
     17 C23         -2.1920   -12.3760     3.2780 c6         1 6BF      -0.071400
     18 C24         -3.6350   -12.8980     3.5390 c6         1 6BF      -0.068700
     19 C25         -4.4620   -11.9330     4.4360 c3         1 6BF       0.169600
     20 N1          -6.5270    -8.6450     6.1750 nb         1 6BF      -0.641000
     21 C4          -5.3620    -8.3700     3.5850 ca         1 6BF       0.031000
     22 C5          -6.0420    -7.3070     4.2190 ca         1 6BF      -0.135000
     23 C6          -4.1500    -9.0800     1.4300 cc         1 6BF      -0.109000
     24 C7          -4.7800    -8.1590     2.2320 cd         1 6BF      -0.168000
     25 C8          -4.7450    -6.9290     1.5100 cd         1 6BF       0.261900
     26 N2          -4.1480    -7.0140     0.3350 nc         1 6BF      -0.518800
     27 N3          -3.8060    -8.3410     0.3110 na         1 6BF       0.221000
     28 C9          -3.0860    -8.8680    -0.7670 ca         1 6BF      -0.026200
     29 C10         -3.4370    -8.5400    -2.0930 ca         1 6BF      -0.076000
     30 N4          -0.8970   -10.5040    -4.0300 nh         1 6BF      -0.792400
     31 N5           0.6940   -11.5120    -6.3490 n3         1 6BF      -0.715600
     32 N6          -1.3600   -14.7240     3.0370 n7         1 6BF      -0.864400
     33 H1          -7.1300    -6.6670     5.9850 h4         1 6BF       0.021100
     34 H2          -5.8380   -10.5890     6.1740 h4         1 6BF       0.018100
     35 H3          -3.0030    -8.8020    -4.1840 ha         1 6BF       0.118000
     36 H4          -0.4610   -10.9560    -1.4390 ha         1 6BF       0.118000
     37 H5          -1.7070   -10.0060     0.4690 ha         1 6BF       0.129000
     38 H6           1.0330   -10.3820    -3.0840 h1         1 6BF       0.046700
     39 H7           0.8310    -9.3410    -4.4980 h1         1 6BF       0.046700
     40 H8           1.2050   -12.3890    -4.4680 h1         1 6BF       0.041700
     41 H9           2.3580   -11.1800    -5.0430 h1         1 6BF       0.041700
     42 H10         -1.2320   -11.7700    -7.2480 h1         1 6BF       0.041700
     43 H11         -0.9640   -12.7440    -5.8000 h1         1 6BF       0.041700
     44 H12         -1.4980    -9.7240    -5.9270 h1         1 6BF       0.046700
     45 H13         -2.5680   -10.9830    -5.2850 h1         1 6BF       0.046700
     46 H14          2.4490   -12.2690    -7.2910 h1         1 6BF       0.033700
     47 H15          1.2870   -13.5160    -6.7790 h1         1 6BF       0.033700
     48 H16          0.9500   -12.5150    -8.2110 h1         1 6BF       0.033700
     49 H18         -4.5800   -14.7380     4.2580 hc         1 6BF       0.051950
     50 H19         -3.2210   -15.4170     2.2950 h1         1 6BF       0.030700
     51 H20         -2.6410   -16.2570     3.7480 h1         1 6BF       0.030700
     52 H21         -1.8300   -13.4420     1.4140 h1         1 6BF       0.030700
     53 H22         -0.3520   -13.0110     2.2980 h1         1 6BF       0.030700
     54 H23         -1.6740   -12.2140     4.2330 hc         1 6BF       0.051950
     55 H24         -2.2200   -11.4030     2.7710 hc         1 6BF       0.051950
     56 H25         -4.1670   -12.9580     2.5780 hc         1 6BF       0.054700
     57 H26         -3.9440   -11.8000     5.3940 h1         1 6BF       0.041700
     58 H27         -5.4470   -12.3790     4.6280 h1         1 6BF       0.041700
     59 H28         -6.1530    -6.3400     3.7400 ha         1 6BF       0.123000
     60 H29         -3.9350   -10.1340     1.5290 h4         1 6BF       0.170000
     61 H30         -5.1330    -5.9660     1.8150 h4         1 6BF       0.038100
     62 H31         -4.2710    -7.8690    -2.2870 ha         1 6BF       0.129000
     63 H33         -0.8440   -15.3640     2.4190 hn         1 6BF       0.410000
     64 H17         -3.1350   -14.2830     5.1570 hc         1 6BF       0.051950
@<TRIPOS>BOND
     1     1    20 ar  
     2     1    22 ar  
     3     1    33 1   
     4     2     3 ar  
     5     2    20 ar  
     6     2    34 1   
     7     3     4 1   
     8     3    21 ar  
     9     4    19 1   
    10     5     6 ar  
    11     5    29 ar  
    12     5    35 1   
    13     6     7 ar  
    14     6    30 1   
    15     7     8 ar  
    16     7    36 1   
    17     8    28 ar  
    18     8    37 1   
    19     9    10 1   
    20     9    30 1   
    21     9    38 1   
    22     9    39 1   
    23    10    31 1   
    24    10    40 1   
    25    10    41 1   
    26    11    12 1   
    27    11    31 1   
    28    11    42 1   
    29    11    43 1   
    30    12    30 1   
    31    12    44 1   
    32    12    45 1   
    33    13    31 1   
    34    13    46 1   
    35    13    47 1   
    36    13    48 1   
    37    14    15 1   
    38    14    18 1   
    39    14    49 1   
    40    14    64 1   
    41    15    32 1   
    42    15    50 1   
    43    15    51 1   
    44    16    17 1   
    45    16    32 1   
    46    16    52 1   
    47    16    53 1   
    48    17    18 1   
    49    17    54 1   
    50    17    55 1   
    51    18    19 1   
    52    18    56 1   
    53    19    57 1   
    54    19    58 1   
    55    21    22 ar  
    56    21    24 1   
    57    22    59 1   
    58    23    24 2   
    59    23    27 1   
    60    23    60 1   
    61    24    25 1   
    62    25    26 2   
    63    25    61 1   
    64    26    27 1   
    65    27    28 1   
    66    28    29 ar  
    67    29    62 1   
    68    32    63 1   
@<TRIPOS>SUBSTRUCTURE
     1 6BF         1 TEMP              0 ****  ****    0 ROOT
