@<TRIPOS>MOLECULE
6BF
   64    68     1     0     0
SMALL
abcg2


@<TRIPOS>ATOM
      1 C1          -6.8460    -7.6640     5.3280 ca         1 6BF       0.299900
      2 C2          -6.0810    -9.8130     5.4450 ca         1 6BF       0.256900
      3 C3          -5.4320    -9.7080     4.2150 ca         1 6BF       0.090100
      4 O1          -4.7280   -10.7160     3.6540 os         1 6BF      -0.362100
      5 C11         -2.4680    -9.0250    -3.1390 ca         1 6BF      -0.156500
      6 C12         -1.6650   -10.1710    -3.0070 ca         1 6BF       0.303000
      7 C13         -1.5720   -10.7440    -1.7240 ca         1 6BF      -0.156500
      8 C14         -2.2450   -10.2070    -0.6420 ca         1 6BF      -0.076000
      9 C15          0.3600   -11.2330    -3.8850 c6         1 6BF       0.199800
     10 C16          0.8010   -12.1430    -5.0160 c6         1 6BF       0.154800
     11 C17         -0.6970   -11.0560    -6.5100 c6         1 6BF       0.154800
     12 C18         -1.1720   -10.1270    -5.4050 c6         1 6BF       0.199800
     13 C19          1.1620   -12.3060    -7.3910 c3         1 6BF       0.150100
     14 C20         -3.3100   -14.1280     4.2640 c6         1 6BF      -0.071400
     15 C21         -2.2860   -14.9610     3.5010 c6         1 6BF       0.159300
     16 C22         -1.1640   -12.9770     2.6860 c6         1 6BF       0.159300
     17 C23         -2.1450   -12.0680     3.4170 c6         1 6BF      -0.071400
     18 C24         -3.5010   -12.7590     3.6010 c6         1 6BF      -0.068700
     19 C25         -4.4740   -11.9160     4.4000 c3         1 6BF       0.169600
     20 N1          -6.7770    -8.8160     6.0000 nb         1 6BF      -0.641000
     21 C4          -5.5000    -8.4940     3.4990 ca         1 6BF       0.031000
     22 C5          -6.2340    -7.4680     4.1000 ca         1 6BF      -0.135000
     23 C6          -4.2250    -9.2170     1.3790 cc         1 6BF      -0.109000
     24 C7          -4.8350    -8.2910     2.2170 cd         1 6BF      -0.168000
     25 C8          -4.6720    -7.0590     1.5280 cd         1 6BF       0.261900
     26 N2          -4.0210    -7.2130     0.3860 nc         1 6BF      -0.518800
     27 N3          -3.7550    -8.5420     0.3050 na         1 6BF       0.221000
     28 C9          -3.0510    -9.0810    -0.8020 ca         1 6BF      -0.026200
     29 C10         -3.1590    -8.4970    -2.0570 ca         1 6BF      -0.076000
     30 N4          -1.0080   -10.7490    -4.0960 nh         1 6BF      -0.792400
     31 N5           0.6850   -11.4670    -6.3020 n3         1 6BF      -0.715600
     32 N6          -1.0150   -14.2400     3.4140 n7         1 6BF      -0.864400
     33 H1          -7.4150    -6.8640     5.7870 h4         1 6BF       0.021100
     34 H2          -6.0370   -10.7380     6.0040 h4         1 6BF       0.018100
     35 H3          -2.5640    -8.5280    -4.0920 ha         1 6BF       0.118000
     36 H4          -0.9730   -11.6290    -1.5650 ha         1 6BF       0.118000
     37 H5          -2.1350   -10.6680     0.3310 ha         1 6BF       0.129000
     38 H6           0.4190   -11.7880    -2.9530 h1         1 6BF       0.046700
     39 H7           1.0500   -10.3790    -3.8130 h1         1 6BF       0.046700
     40 H8           0.1950   -13.0660    -4.9990 h1         1 6BF       0.041700
     41 H9           1.8430   -12.4270    -4.8560 h1         1 6BF       0.041700
     42 H10         -0.7730   -10.5350    -7.4650 h1         1 6BF       0.041700
     43 H11         -1.3650   -11.9350    -6.5540 h1         1 6BF       0.041700
     44 H12         -0.6220    -9.1760    -5.4610 h1         1 6BF       0.046700
     45 H13         -2.2270    -9.9160    -5.5700 h1         1 6BF       0.046700
     46 H14          2.2050   -12.5750    -7.2180 h1         1 6BF       0.033700
     47 H15          0.5780   -13.2360    -7.4900 h1         1 6BF       0.033700
     48 H16          1.0950   -11.7590    -8.3330 h1         1 6BF       0.033700
     49 H18         -4.2630   -14.6620     4.3060 hc         1 6BF       0.051950
     50 H19         -2.6920   -15.1910     2.5010 h1         1 6BF       0.030700
     51 H20         -2.1150   -15.9110     4.0110 h1         1 6BF       0.030700
     52 H21         -1.5290   -13.1400     1.6580 h1         1 6BF       0.030700
     53 H22         -0.1860   -12.4980     2.6130 h1         1 6BF       0.030700
     54 H23         -1.7360   -11.8160     4.4010 hc         1 6BF       0.051950
     55 H24         -2.2670   -11.1360     2.8630 hc         1 6BF       0.051950
     56 H25         -3.9390   -12.9240     2.6090 hc         1 6BF       0.054700
     57 H26         -4.0510   -11.6560     5.3750 h1         1 6BF       0.041700
     58 H27         -5.4150   -12.4510     4.5580 h1         1 6BF       0.041700
     59 H28         -6.3340    -6.5110     3.6070 ha         1 6BF       0.123000
     60 H29         -4.1230   -10.2800     1.4630 h4         1 6BF       0.170000
     61 H30         -4.9890    -6.0740     1.8320 h4         1 6BF       0.038100
     62 H31         -3.7780    -7.6210    -2.1890 ha         1 6BF       0.129000
     63 H33         -0.3290   -14.8210     2.9460 hn         1 6BF       0.410000
     64 H17         -2.9650   -13.9910     5.2940 hc         1 6BF       0.051950
@<TRIPOS>BOND
     1     1    20 ar  
     2     1    22 ar  
     3     1    33 1   
     4     2     3 ar  
     5     2    20 ar  
     6     2    34 1   
     7     3     4 1   
     8     3    21 ar  
     9     4    19 1   
    10     5     6 ar  
    11     5    29 ar  
    12     5    35 1   
    13     6     7 ar  
    14     6    30 1   
    15     7     8 ar  
    16     7    36 1   
    17     8    28 ar  
    18     8    37 1   
    19     9    10 1   
    20     9    30 1   
    21     9    38 1   
    22     9    39 1   
    23    10    31 1   
    24    10    40 1   
    25    10    41 1   
    26    11    12 1   
    27    11    31 1   
    28    11    42 1   
    29    11    43 1   
    30    12    30 1   
    31    12    44 1   
    32    12    45 1   
    33    13    31 1   
    34    13    46 1   
    35    13    47 1   
    36    13    48 1   
    37    14    15 1   
    38    14    18 1   
    39    14    49 1   
    40    14    64 1   
    41    15    32 1   
    42    15    50 1   
    43    15    51 1   
    44    16    17 1   
    45    16    32 1   
    46    16    52 1   
    47    16    53 1   
    48    17    18 1   
    49    17    54 1   
    50    17    55 1   
    51    18    19 1   
    52    18    56 1   
    53    19    57 1   
    54    19    58 1   
    55    21    22 ar  
    56    21    24 1   
    57    22    59 1   
    58    23    24 2   
    59    23    27 1   
    60    23    60 1   
    61    24    25 1   
    62    25    26 2   
    63    25    61 1   
    64    26    27 1   
    65    27    28 1   
    66    28    29 ar  
    67    29    62 1   
    68    32    63 1   
@<TRIPOS>SUBSTRUCTURE
     1 6BF         1 TEMP              0 ****  ****    0 ROOT
