@<TRIPOS>MOLECULE
6BG
   23    23     1     0     0
SMALL
No Charge or Current Charge


@<TRIPOS>ATOM
      1 Br6         -3.0370     0.5740    -0.0640 br         1 6BG      -0.246000
      2 C6          -1.5970    -0.6950     0.4910 c3         1 6BG       0.086600
      3 C5          -0.2110    -0.3810    -0.1330 c6         1 6BG       0.152300
      4 O5           0.1550     0.9650     0.2670 os         1 6BG      -0.475000
      5 C1           1.3820     1.4240    -0.3030 c6         1 6BG       0.368300
      6 O1           1.5290     2.7460     0.1700 oh         1 6BG      -0.703000
      7 C4           0.8900    -1.3920     0.3230 c6         1 6BG       0.143300
      8 O4           0.5950    -2.7370    -0.1020 oh         1 6BG      -0.701000
      9 C3           2.2700    -0.9430    -0.2460 c6         1 6BG       0.174300
     10 O3           3.3230    -1.8130     0.2040 oh         1 6BG      -0.707000
     11 C2           2.5670     0.5230     0.1780 c6         1 6BG       0.105300
     12 O2           3.8430     0.9610    -0.3500 oh         1 6BG      -0.723000
     13 H1          -1.5380    -0.6520     1.5850 h1         1 6BG       0.082700
     14 H2          -1.9290    -1.6960     0.1860 h1         1 6BG       0.082700
     15 H3          -0.3080    -0.4160    -1.2280 h1         1 6BG       0.062700
     16 H4           1.3100     1.4190    -1.4010 h2         1 6BG       0.034700
     17 H5           0.6310     2.9560     0.5100 ho         1 6BG       0.526000
     18 H6           0.9470    -1.3570     1.4220 h1         1 6BG       0.058700
     19 H7           1.4550    -3.2190    -0.0300 ho         1 6BG       0.511000
     20 H8           2.2130    -0.9700    -1.3450 h1         1 6BG       0.054700
     21 H9           4.1480    -1.2810     0.0840 ho         1 6BG       0.522000
     22 H10          2.5870     0.5630     1.2780 h1         1 6BG       0.066700
     23 H11          3.8510     1.9450    -0.2490 ho         1 6BG       0.525000
@<TRIPOS>BOND
     1     1     2 1   
     2     2     3 1   
     3     2    13 1   
     4     2    14 1   
     5     3     4 1   
     6     3     7 1   
     7     3    15 1   
     8     4     5 1   
     9     5     6 1   
    10     5    11 1   
    11     5    16 1   
    12     6    17 1   
    13     7     8 1   
    14     7     9 1   
    15     7    18 1   
    16     8    19 1   
    17     9    10 1   
    18     9    11 1   
    19     9    20 1   
    20    10    21 1   
    21    11    12 1   
    22    11    22 1   
    23    12    23 1   
@<TRIPOS>SUBSTRUCTURE
     1 6BG         1 TEMP              0 ****  ****    0 ROOT
