@<TRIPOS>MOLECULE
6BG
   23    23     1     0     0
SMALL
abcg2


@<TRIPOS>ATOM
      1 BR6         -2.9280     0.3130     0.0250 br         1 6BG      -0.246000
      2 C6          -1.4480    -0.8720     0.5240 c3         1 6BG       0.086600
      3 C5          -0.1440    -0.4050    -0.0780 c6         1 6BG       0.152300
      4 O5           0.1500     0.8720     0.4300 os         1 6BG      -0.475000
      5 C1           1.2910     1.4470    -0.1670 c6         1 6BG       0.368300
      6 O1           1.4660     2.7100     0.3550 oh         1 6BG      -0.703000
      7 C4           0.9920    -1.3860     0.2680 c6         1 6BG       0.143300
      8 O4           0.7550    -2.6450    -0.3100 oh         1 6BG      -0.701000
      9 C3           2.3020    -0.8370    -0.2800 c6         1 6BG       0.174300
     10 O3           3.3430    -1.6730     0.1530 oh         1 6BG      -0.707000
     11 C2           2.5140     0.6030     0.1750 c6         1 6BG       0.105300
     12 O2           3.6710     1.0800    -0.4670 oh         1 6BG      -0.723000
     13 H1          -1.4070    -0.8850     1.6130 h1         1 6BG       0.082700
     14 H2          -1.7070    -1.8650     0.1610 h1         1 6BG       0.082700
     15 H3          -0.2420    -0.3740    -1.1750 h1         1 6BG       0.062700
     16 H4           1.1540     1.4740    -1.2620 h2         1 6BG       0.034700
     17 H5           0.8740     3.3270    -0.0880 ho         1 6BG       0.526000
     18 H6           1.0730    -1.4550     1.3620 h1         1 6BG       0.058700
     19 H7           0.3770    -3.2290     0.3530 ho         1 6BG       0.511000
     20 H8           2.2300    -0.8380    -1.3810 h1         1 6BG       0.054700
     21 H9           4.1690    -1.3330    -0.2060 ho         1 6BG       0.522000
     22 H10          2.6340     0.6100     1.2700 h1         1 6BG       0.066700
     23 H11          3.9580     1.8850    -0.0260 ho         1 6BG       0.525000
@<TRIPOS>BOND
     1     1     2 1   
     2     2     3 1   
     3     2    13 1   
     4     2    14 1   
     5     3     4 1   
     6     3     7 1   
     7     3    15 1   
     8     4     5 1   
     9     5     6 1   
    10     5    11 1   
    11     5    16 1   
    12     6    17 1   
    13     7     8 1   
    14     7     9 1   
    15     7    18 1   
    16     8    19 1   
    17     9    10 1   
    18     9    11 1   
    19     9    20 1   
    20    10    21 1   
    21    11    12 1   
    22    11    22 1   
    23    12    23 1   
@<TRIPOS>SUBSTRUCTURE
     1 6BG         1 TEMP              0 ****  ****    0 ROOT
