@<TRIPOS>MOLECULE
6BH
   42    44     1     0     0
SMALL
No Charge or Current Charge


@<TRIPOS>ATOM
      1 OAB         -7.6100    -2.1270    -0.4020 o          1 6BH      -0.391500
      2 NBA         -6.3730    -2.1700    -0.3850 no         1 6BH       0.694200
      3 OAC         -5.7240    -3.2210    -0.4710 o          1 6BH      -0.391500
      4 CAY         -5.6210    -0.8810    -0.2560 ca         1 6BH      -0.186200
      5 CAP         -4.2050    -0.8770    -0.2320 ca         1 6BH       0.004000
      6 CAN         -6.3150     0.3440    -0.1550 ca         1 6BH      -0.027000
      7 CAM         -5.6040     1.5470    -0.0340 ca         1 6BH      -0.128000
      8 CAW         -4.2000     1.5480    -0.0110 ca         1 6BH      -0.049000
      9 CAZ         -3.4810     0.3320    -0.1100 ca         1 6BH      -0.164600
     10 CAT         -1.9630     0.2870    -0.0890 c          1 6BH       0.619700
     11 OAA         -1.3650    -0.7800    -0.1760 o          1 6BH      -0.559100
     12 NAR         -1.3210     1.5140     0.0320 ns         1 6BH      -0.139000
     13 CAV          0.0520     1.8800     0.0900 ca         1 6BH       0.010000
     14 CAO          1.1180     0.9540     0.0390 ca         1 6BH      -0.169000
     15 CAK          0.3510     3.2490     0.2060 ca         1 6BH      -0.206000
     16 CAH          1.6810     3.6940     0.2690 ca         1 6BH      -0.044000
     17 CAL          2.7340     2.7670     0.2180 ca         1 6BH      -0.226000
     18 CAX          2.4510     1.3900     0.1020 ca         1 6BH       0.171100
     19 OAS          3.4420     0.4320     0.0480 os         1 6BH      -0.337100
     20 CAQ          4.8380     0.7700     0.1040 c3         1 6BH       0.211900
     21 CAU          5.6500    -0.5160     0.0200 ca         1 6BH      -0.098300
     22 CAI          6.0550    -1.0200    -1.2320 ca         1 6BH      -0.082500
     23 CAF          6.8050    -2.2070    -1.3090 ca         1 6BH      -0.115000
     24 CAE          7.1540    -2.8960    -0.1360 ca         1 6BH      -0.097000
     25 CAG          6.7510    -2.3990     1.1150 ca         1 6BH      -0.115000
     26 CAJ          6.0010    -1.2130     1.1930 ca         1 6BH      -0.082500
     27 H1          -3.6610    -1.8190    -0.3090 ha         1 6BH       0.175000
     28 H2          -7.4040     0.3750    -0.1700 ha         1 6BH       0.155000
     29 H3          -6.1460     2.4880     0.0430 ha         1 6BH       0.132000
     30 H4          -3.6920     2.5050     0.0850 ha         1 6BH       0.124000
     31 H5          -1.9480     2.3030     0.0920 hn         1 6BH       0.152000
     32 H6           0.9400    -0.1110    -0.0480 ha         1 6BH       0.164000
     33 H7          -0.4540     3.9800     0.2470 ha         1 6BH       0.110000
     34 H8           1.8960     4.7570     0.3580 ha         1 6BH       0.112000
     35 H9           3.7540     3.1350     0.2690 ha         1 6BH       0.120000
     36 H10          5.1110     1.4300    -0.7300 h1         1 6BH       0.041200
     37 H11          5.0720     1.2900     1.0430 h1         1 6BH       0.041200
     38 H12          5.7860    -0.4930    -2.1450 ha         1 6BH       0.114000
     39 H13          7.1150    -2.5910    -2.2790 ha         1 6BH       0.114500
     40 H14          7.7340    -3.8150    -0.1960 ha         1 6BH       0.113000
     41 H15          7.0200    -2.9330     2.0240 ha         1 6BH       0.114500
     42 H16          5.6910    -0.8360     2.1660 ha         1 6BH       0.114000
@<TRIPOS>BOND
     1     1     2 1   
     2     2     3 1   
     3     2     4 1   
     4     4     5 ar  
     5     4     6 ar  
     6     5     9 ar  
     7     5    27 1   
     8     6     7 ar  
     9     6    28 1   
    10     7     8 ar  
    11     7    29 1   
    12     8     9 ar  
    13     8    30 1   
    14     9    10 1   
    15    10    11 2   
    16    10    12 1   
    17    12    13 1   
    18    12    31 1   
    19    13    14 ar  
    20    13    15 ar  
    21    14    18 ar  
    22    14    32 1   
    23    15    16 ar  
    24    15    33 1   
    25    16    17 ar  
    26    16    34 1   
    27    17    18 ar  
    28    17    35 1   
    29    18    19 1   
    30    19    20 1   
    31    20    21 1   
    32    20    36 1   
    33    20    37 1   
    34    21    22 ar  
    35    21    26 ar  
    36    22    23 ar  
    37    22    38 1   
    38    23    24 ar  
    39    23    39 1   
    40    24    25 ar  
    41    24    40 1   
    42    25    26 ar  
    43    25    41 1   
    44    26    42 1   
@<TRIPOS>SUBSTRUCTURE
     1 6BH         1 TEMP              0 ****  ****    0 ROOT
