@<TRIPOS>MOLECULE
6BH
   42    44     1     0     0
SMALL
abcg2


@<TRIPOS>ATOM
      1 OAB         -7.3440    -2.0390     0.2340 o          1 6BH      -0.391500
      2 NBA         -6.1410    -2.0410     0.3380 no         1 6BH       0.694200
      3 OAC         -5.4970    -2.9830     0.7310 o          1 6BH      -0.391500
      4 CAY         -5.4230    -0.8280    -0.0360 ca         1 6BH      -0.186200
      5 CAP         -4.0450    -0.8040     0.0880 ca         1 6BH       0.004000
      6 CAN         -6.1400     0.2600    -0.5120 ca         1 6BH      -0.027000
      7 CAM         -5.4440     1.4010    -0.8720 ca         1 6BH      -0.128000
      8 CAW         -4.0630     1.4510    -0.7440 ca         1 6BH      -0.049000
      9 CAZ         -3.3590     0.3540    -0.2550 ca         1 6BH      -0.164600
     10 CAT         -1.8670     0.3310    -0.1270 c          1 6BH       0.619700
     11 OAA         -1.2540    -0.7170    -0.2230 o          1 6BH      -0.559100
     12 NAR         -1.2970     1.5360     0.1090 ns         1 6BH      -0.139000
     13 CAV          0.0590     1.8670     0.2210 ca         1 6BH       0.010000
     14 CAO          1.0960     0.9540     0.0830 ca         1 6BH      -0.169000
     15 CAK          0.3470     3.2110     0.4850 ca         1 6BH      -0.206000
     16 CAH          1.6600     3.6160     0.6050 ca         1 6BH      -0.044000
     17 CAL          2.7140     2.7180     0.4700 ca         1 6BH      -0.226000
     18 CAX          2.4200     1.3840     0.2070 ca         1 6BH       0.171100
     19 OAS          3.3480     0.4180     0.0550 os         1 6BH      -0.337100
     20 CAQ          4.7200     0.7630     0.1980 c3         1 6BH       0.211900
     21 CAU          5.5160    -0.4900    -0.0040 ca         1 6BH      -0.098300
     22 CAI          6.0460    -0.8010    -1.2520 ca         1 6BH      -0.082500
     23 CAF          6.7590    -1.9770    -1.4430 ca         1 6BH      -0.115000
     24 CAE          6.9440    -2.8560    -0.3850 ca         1 6BH      -0.097000
     25 CAG          6.4160    -2.5550     0.8650 ca         1 6BH      -0.115000
     26 CAJ          5.7050    -1.3780     1.0520 ca         1 6BH      -0.082500
     27 H1          -3.5040    -1.6660     0.4520 ha         1 6BH       0.175000
     28 H2          -7.2150     0.2270    -0.6080 ha         1 6BH       0.155000
     29 H3          -5.9800     2.2550    -1.2590 ha         1 6BH       0.132000
     30 H4          -3.5480     2.3490    -1.0580 ha         1 6BH       0.124000
     31 H5          -1.9230     2.3090     0.2740 hn         1 6BH       0.152000
     32 H6           0.9090    -0.0890    -0.1170 ha         1 6BH       0.164000
     33 H7          -0.4560     3.9300     0.5890 ha         1 6BH       0.110000
     34 H8           1.8780     4.6560     0.8070 ha         1 6BH       0.112000
     35 H9           3.7290     3.0730     0.5710 ha         1 6BH       0.120000
     36 H10          5.0020     1.5220    -0.5390 h1         1 6BH       0.041200
     37 H11          4.9040     1.1780     1.1940 h1         1 6BH       0.041200
     38 H12          5.9060    -0.1170    -2.0810 ha         1 6BH       0.114000
     39 H13          7.1720    -2.2060    -2.4170 ha         1 6BH       0.114500
     40 H14          7.5020    -3.7720    -0.5310 ha         1 6BH       0.113000
     41 H15          6.5610    -3.2340     1.6940 ha         1 6BH       0.114500
     42 H16          5.3010    -1.1430     2.0300 ha         1 6BH       0.114000
@<TRIPOS>BOND
     1     1     2 1   
     2     2     3 1   
     3     2     4 1   
     4     4     5 ar  
     5     4     6 ar  
     6     5     9 ar  
     7     5    27 1   
     8     6     7 ar  
     9     6    28 1   
    10     7     8 ar  
    11     7    29 1   
    12     8     9 ar  
    13     8    30 1   
    14     9    10 1   
    15    10    11 2   
    16    10    12 1   
    17    12    13 1   
    18    12    31 1   
    19    13    14 ar  
    20    13    15 ar  
    21    14    18 ar  
    22    14    32 1   
    23    15    16 ar  
    24    15    33 1   
    25    16    17 ar  
    26    16    34 1   
    27    17    18 ar  
    28    17    35 1   
    29    18    19 1   
    30    19    20 1   
    31    20    21 1   
    32    20    36 1   
    33    20    37 1   
    34    21    22 ar  
    35    21    26 ar  
    36    22    23 ar  
    37    22    38 1   
    38    23    24 ar  
    39    23    39 1   
    40    24    25 ar  
    41    24    40 1   
    42    25    26 ar  
    43    25    41 1   
    44    26    42 1   
@<TRIPOS>SUBSTRUCTURE
     1 6BH         1 TEMP              0 ****  ****    0 ROOT
