@<TRIPOS>MOLECULE
6BJ
   44    47     1     0     0
SMALL
No Charge or Current Charge


@<TRIPOS>ATOM
      1 C1          -4.5420    -0.5610     0.5180 cc         1 6BJ      -0.167000
      2 C2          -3.4370     0.1420     0.1250 cd         1 6BJ      -0.129000
      3 C3          -4.1320    -1.4180     1.5640 cc         1 6BJ       0.269900
      4 O1           3.1000     2.9370     0.3790 o          1 6BJ      -0.616100
      5 C11          1.4780     1.1640     0.4590 ca         1 6BJ      -0.148600
      6 C12          1.2110    -0.2220     0.3430 ca         1 6BJ      -0.055500
      7 C13          0.4030     2.0340     0.7560 ca         1 6BJ      -0.055500
      8 C14         -0.0940    -0.7160     0.5190 ca         1 6BJ      -0.127000
      9 C15          2.8690     1.7390     0.2770 c          1 6BJ       0.614700
     10 C16          5.2900     1.2070    -0.2210 c3         1 6BJ       0.052700
     11 C17          6.2010     0.0110    -0.5230 ca         1 6BJ       0.336300
     12 C18          7.5780     0.2100    -0.7390 ca         1 6BJ      -0.155000
     13 C19          8.4010    -0.8940    -1.0150 ca         1 6BJ      -0.064000
     14 C20          7.8070    -2.1640    -1.0640 ca         1 6BJ      -0.163000
     15 C21          6.4250    -2.2840    -0.8390 ca         1 6BJ       0.349900
     16 N1          -2.4500    -0.3430     0.9830 na         1 6BJ       0.228000
     17 N2          -2.8520    -1.3220     1.8740 nd         1 6BJ      -0.513800
     18 C4          -7.3800     0.6380    -1.6960 ca         1 6BJ       0.337900
     19 N3          -8.4310    -0.0960    -1.2690 nb         1 6BJ      -0.668000
     20 C5          -8.2140    -0.9760    -0.2660 ca         1 6BJ       0.337900
     21 C6          -6.9590    -1.1530     0.3390 ca         1 6BJ      -0.166000
     22 C7          -5.8610    -0.3920    -0.1010 ca         1 6BJ       0.057000
     23 C8          -6.0920     0.5240    -1.1460 ca         1 6BJ      -0.166000
     24 C9          -1.1580     0.1570     0.8100 ca         1 6BJ       0.035800
     25 C10         -0.9000     1.5360     0.9310 ca         1 6BJ      -0.127000
     26 N4           3.8760     0.8490    -0.0100 ns         1 6BJ      -0.493900
     27 N5           5.6290    -1.2220    -0.5720 nb         1 6BJ      -0.699000
     28 H1          -3.2640     0.8940    -0.6350 h4         1 6BJ       0.162000
     29 H2          -4.7420    -2.1240     2.1120 h4         1 6BJ       0.043100
     30 H3           2.0000    -0.9350     0.1180 ha         1 6BJ       0.133000
     31 H4           0.5750     3.1040     0.8550 ha         1 6BJ       0.133000
     32 H5          -0.2810    -1.7840     0.4260 ha         1 6BJ       0.135000
     33 H6           5.6610     1.7140     0.6790 h1         1 6BJ       0.064200
     34 H7           5.3500     1.9160    -1.0570 h1         1 6BJ       0.064200
     35 H8           7.9990     1.2110    -0.6920 ha         1 6BJ       0.129000
     36 H9           9.4690    -0.7680    -1.1850 ha         1 6BJ       0.123000
     37 H10          8.4010    -3.0490    -1.2740 ha         1 6BJ       0.128000
     38 H11          5.9400    -3.2590    -0.8720 h4         1 6BJ       0.021100
     39 H12         -7.5760     1.3410    -2.5040 h4         1 6BJ       0.017600
     40 H13         -9.0740    -1.5580     0.0630 h4         1 6BJ       0.017600
     41 H14         -6.8570    -1.8770     1.1400 ha         1 6BJ       0.119000
     42 H15         -5.2990     1.1480    -1.5420 ha         1 6BJ       0.119000
     43 H16         -1.7090     2.2240     1.1640 ha         1 6BJ       0.135000
     44 H17          3.6330    -0.1320    -0.0830 hn         1 6BJ       0.348500
@<TRIPOS>BOND
     1     1     2 2   
     2     1     3 1   
     3     1    22 1   
     4     2    16 1   
     5     2    28 1   
     6     3    17 2   
     7     3    29 1   
     8     4     9 2   
     9     5     6 ar  
    10     5     7 ar  
    11     5     9 1   
    12     6     8 ar  
    13     6    30 1   
    14     7    25 ar  
    15     7    31 1   
    16     8    24 ar  
    17     8    32 1   
    18     9    26 1   
    19    10    11 1   
    20    10    26 1   
    21    10    33 1   
    22    10    34 1   
    23    11    12 ar  
    24    11    27 ar  
    25    12    13 ar  
    26    12    35 1   
    27    13    14 ar  
    28    13    36 1   
    29    14    15 ar  
    30    14    37 1   
    31    15    27 ar  
    32    15    38 1   
    33    16    17 1   
    34    16    24 1   
    35    18    19 ar  
    36    18    23 ar  
    37    18    39 1   
    38    19    20 ar  
    39    20    21 ar  
    40    20    40 1   
    41    21    22 ar  
    42    21    41 1   
    43    22    23 ar  
    44    23    42 1   
    45    24    25 ar  
    46    25    43 1   
    47    26    44 1   
@<TRIPOS>SUBSTRUCTURE
     1 6BJ         1 TEMP              0 ****  ****    0 ROOT
