@<TRIPOS>MOLECULE
6BJ
   44    47     1     0     0
SMALL
bcc


@<TRIPOS>ATOM
      1 C1          -4.5620    -0.5740     0.1820 cc         1 6BJ      -0.232300
      2 C2          -3.5290     0.3180    -0.0030 cd         1 6BJ      -0.096300
      3 C3          -3.9050    -1.7960     0.4630 cc         1 6BJ       0.335200
      4 O1           3.0850     2.8440    -0.4790 o          1 6BJ      -0.616100
      5 C11          1.5520     1.0620    -0.1630 ca         1 6BJ      -0.148600
      6 C12          1.2730    -0.2980    -0.2820 ca         1 6BJ      -0.073500
      7 C13          0.4930     1.9360     0.0690 ca         1 6BJ      -0.073500
      8 C14         -0.0210    -0.7750    -0.1740 ca         1 6BJ      -0.145000
      9 C15          2.9240     1.6420    -0.2970 c          1 6BJ       0.681700
     10 C16          5.3160     1.2140    -0.3500 c3         1 6BJ       0.052700
     11 C17          6.2450     0.0300    -0.2680 ca         1 6BJ       0.401600
     12 C18          7.6140     0.2070    -0.4450 ca         1 6BJ      -0.238300
     13 C19          8.4420    -0.8970    -0.3620 ca         1 6BJ      -0.082000
     14 C20          7.8800    -2.1430    -0.1070 ca         1 6BJ      -0.246300
     15 C21          6.5090    -2.2170     0.0550 ca         1 6BJ       0.415200
     16 N1          -2.3810    -0.3710     0.1670 na         1 6BJ       0.177300
     17 N2          -2.6030    -1.6600     0.4470 nd         1 6BJ      -0.513800
     18 C4          -7.8820     1.0600    -0.4230 ca         1 6BJ       0.403200
     19 N3          -8.7620     0.1360    -0.0530 nb         1 6BJ      -0.668000
     20 C5          -8.2730    -1.0160     0.3940 ca         1 6BJ       0.403200
     21 C6          -6.9200    -1.2920     0.4910 ca         1 6BJ      -0.249300
     22 C7          -5.9940    -0.3240     0.1010 ca         1 6BJ       0.057000
     23 C8          -6.5100     0.8840    -0.3700 ca         1 6BJ      -0.249300
     24 C9          -1.0640     0.1120     0.0650 ca         1 6BJ       0.035800
     25 C10         -0.8030     1.4720     0.1960 ca         1 6BJ      -0.145000
     26 N4           3.9500     0.7900    -0.2070 ns         1 6BJ      -0.560900
     27 N5           5.7090    -1.1570    -0.0230 nb         1 6BJ      -0.699000
     28 H1          -3.5350     1.3650    -0.2540 h4         1 6BJ       0.180000
     29 H2          -4.3450    -2.7600     0.6700 h4         1 6BJ       0.043100
     30 H3           2.0520    -1.0190    -0.4920 ha         1 6BJ       0.151000
     31 H4           0.6800     2.9970     0.1650 ha         1 6BJ       0.151000
     32 H5          -0.2150    -1.8320    -0.2860 ha         1 6BJ       0.153000
     33 H6           5.5850     1.9380     0.4260 h1         1 6BJ       0.064200
     34 H7           5.4640     1.7230    -1.3070 h1         1 6BJ       0.064200
     35 H8           8.0160     1.1920    -0.6450 ha         1 6BJ       0.147000
     36 H9           9.5100    -0.7910    -0.4940 ha         1 6BJ       0.141000
     37 H10          8.4900    -3.0320    -0.0350 ha         1 6BJ       0.146000
     38 H11          6.0290    -3.1680     0.2580 h4         1 6BJ       0.021100
     39 H12         -8.2870     1.9970    -0.7880 h4         1 6BJ       0.017600
     40 H13         -8.9960    -1.7660     0.6950 h4         1 6BJ       0.017600
     41 H14         -6.6020    -2.2520     0.8760 ha         1 6BJ       0.137000
     42 H15         -5.8630     1.6850    -0.7010 ha         1 6BJ       0.137000
     43 H16         -1.5960     2.1760     0.4070 ha         1 6BJ       0.153000
     44 H17          3.8230    -0.1880     0.0100 hn         1 6BJ       0.348500
@<TRIPOS>BOND
     1     1     2 2   
     2     1     3 1   
     3     1    22 1   
     4     2    16 1   
     5     2    28 1   
     6     3    17 2   
     7     3    29 1   
     8     4     9 2   
     9     5     6 ar  
    10     5     7 ar  
    11     5     9 1   
    12     6     8 ar  
    13     6    30 1   
    14     7    25 ar  
    15     7    31 1   
    16     8    24 ar  
    17     8    32 1   
    18     9    26 1   
    19    10    11 1   
    20    10    26 1   
    21    10    33 1   
    22    10    34 1   
    23    11    12 ar  
    24    11    27 ar  
    25    12    13 ar  
    26    12    35 1   
    27    13    14 ar  
    28    13    36 1   
    29    14    15 ar  
    30    14    37 1   
    31    15    27 ar  
    32    15    38 1   
    33    16    17 1   
    34    16    24 1   
    35    18    19 ar  
    36    18    23 ar  
    37    18    39 1   
    38    19    20 ar  
    39    20    21 ar  
    40    20    40 1   
    41    21    22 ar  
    42    21    41 1   
    43    22    23 ar  
    44    23    42 1   
    45    24    25 ar  
    46    25    43 1   
    47    26    44 1   
@<TRIPOS>SUBSTRUCTURE
     1 6BJ         1 TEMP              0 ****  ****    0 ROOT
