@<TRIPOS>MOLECULE
6BK
   30    32     1     0     0
SMALL
No Charge or Current Charge


@<TRIPOS>ATOM
      1 OAI          4.4880    -1.9940     0.6240 oh         1 6BK      -0.530100
      2 CAG          3.7590    -0.9040     0.2420 ca         1 6BK       0.114100
      3 CAH          2.3600    -0.9140     0.3580 ca         1 6BK      -0.080000
      4 CAF          4.4210     0.2300    -0.2690 ca         1 6BK       0.071100
      5 OAJ          5.7870     0.2350    -0.3810 oh         1 6BK      -0.551100
      6 CAE          3.6770     1.3510    -0.6660 ca         1 6BK      -0.171000
      7 CAD          2.2740     1.3420    -0.5490 ca         1 6BK      -0.070000
      8 CAC          1.6010     0.2130    -0.0310 ca         1 6BK      -0.077800
      9 CAB          0.1390     0.1890     0.0890 cc         1 6BK       0.230900
     10 OAK         -0.5030    -1.0350    -0.0000 os         1 6BK      -0.213200
     11 CAA         -0.5480     1.3290     0.4430 cd         1 6BK      -0.391200
     12 CAR         -1.9850     1.3740     0.5510 c          1 6BK       0.611900
     13 OAS         -2.5890     2.3860     0.8810 o          1 6BK      -0.595100
     14 CAQ         -2.6730     0.1210     0.2030 ca         1 6BK      -0.344600
     15 CAL         -1.8870    -1.0110    -0.0770 ca         1 6BK       0.200100
     16 CAM         -2.5180    -2.2230    -0.4050 ca         1 6BK      -0.193000
     17 CAN         -3.9160    -2.3130    -0.4730 ca         1 6BK      -0.011000
     18 CAO         -4.6940    -1.1790    -0.2000 ca         1 6BK      -0.204000
     19 CAP         -4.0770     0.0300     0.1390 ca         1 6BK       0.249100
     20 OAT         -4.8510     1.1130     0.4060 oh         1 6BK      -0.541100
     21 H1           5.4300    -1.7630     0.4560 ho         1 6BK       0.485000
     22 H2           1.8680    -1.7970     0.7570 ha         1 6BK       0.147000
     23 H3           6.0710     1.0990    -0.7540 ho         1 6BK       0.481000
     24 H4           4.1740     2.2310    -1.0690 ha         1 6BK       0.121000
     25 H5           1.7130     2.2140    -0.8780 ha         1 6BK       0.127000
     26 H6          -0.0540     2.2700     0.6430 ha         1 6BK       0.217000
     27 H7          -1.9130    -3.1030    -0.6080 ha         1 6BK       0.137000
     28 H8          -4.3940    -3.2560    -0.7320 ha         1 6BK       0.120000
     29 H9          -5.7780    -1.2390    -0.2480 ha         1 6BK       0.137000
     30 H10         -4.2180     1.8370     0.6460 ho         1 6BK       0.522000
@<TRIPOS>BOND
     1     1     2 1   
     2     1    21 1   
     3     2     3 ar  
     4     2     4 ar  
     5     3     8 ar  
     6     3    22 1   
     7     4     5 1   
     8     4     6 ar  
     9     5    23 1   
    10     6     7 ar  
    11     6    24 1   
    12     7     8 ar  
    13     7    25 1   
    14     8     9 1   
    15     9    10 1   
    16     9    11 2   
    17    10    15 1   
    18    11    12 1   
    19    11    26 1   
    20    12    13 2   
    21    12    14 1   
    22    14    15 ar  
    23    14    19 ar  
    24    15    16 ar  
    25    16    17 ar  
    26    16    27 1   
    27    17    18 ar  
    28    17    28 1   
    29    18    19 ar  
    30    18    29 1   
    31    19    20 1   
    32    20    30 1   
@<TRIPOS>SUBSTRUCTURE
     1 6BK         1 TEMP              0 ****  ****    0 ROOT
