@<TRIPOS>MOLECULE
6BK
   30    32     1     0     0
SMALL
bcc


@<TRIPOS>ATOM
      1 OAI          4.2240    -2.1390     0.3260 oh         1 6BK      -0.491100
      2 CAG          3.6170    -0.9610     0.0910 ca         1 6BK       0.114100
      3 CAH          2.2380    -0.8950     0.1570 ca         1 6BK      -0.098000
      4 CAF          4.3510     0.1960    -0.2160 ca         1 6BK       0.071100
      5 OAJ          5.6870     0.0540    -0.2640 oh         1 6BK      -0.512100
      6 CAE          3.6860     1.3900    -0.4520 ca         1 6BK      -0.189000
      7 CAD          2.3050     1.4520    -0.3780 ca         1 6BK      -0.088000
      8 CAC          1.5680     0.3120    -0.0680 ca         1 6BK      -0.077800
      9 CAB          0.1100     0.3800     0.0210 cc         1 6BK       0.230900
     10 OAK         -0.4780    -0.8060    -0.1650 os         1 6BK      -0.213200
     11 CAA         -0.6070     1.5010     0.2730 cd         1 6BK      -0.341200
     12 CAR         -2.0400     1.4690     0.3280 c          1 6BK       0.611900
     13 OAS         -2.7320     2.4750     0.5440 o          1 6BK      -0.595100
     14 CAQ         -2.6400     0.1600     0.1260 ca         1 6BK      -0.344600
     15 CAL         -1.8220    -0.9450    -0.1110 ca         1 6BK       0.200100
     16 CAM         -2.3370    -2.2160    -0.3080 ca         1 6BK      -0.211000
     17 CAN         -3.7130    -2.3670    -0.2640 ca         1 6BK      -0.029000
     18 CAO         -4.5670    -1.2960    -0.0290 ca         1 6BK      -0.222000
     19 CAP         -4.0400    -0.0260     0.1690 ca         1 6BK       0.249100
     20 OAT         -4.8560     1.0000     0.3960 oh         1 6BK      -0.502100
     21 H1           5.1820    -2.0520     0.2550 ho         1 6BK       0.446000
     22 H2           1.6960    -1.7990     0.4050 ha         1 6BK       0.165000
     23 H3           6.1200     0.8830    -0.4970 ho         1 6BK       0.442000
     24 H4           4.2510     2.2790    -0.7050 ha         1 6BK       0.139000
     25 H5           1.8130     2.3910    -0.5920 ha         1 6BK       0.145000
     26 H6          -0.0990     2.4370     0.4570 ha         1 6BK       0.167000
     27 H7          -1.6810    -3.0560    -0.4930 ha         1 6BK       0.155000
     28 H8          -4.1380    -3.3500    -0.4170 ha         1 6BK       0.138000
     29 H9          -5.6380    -1.4420     0.0010 ha         1 6BK       0.155000
     30 H10         -4.2950     1.8050     0.5070 ho         1 6BK       0.483000
@<TRIPOS>BOND
     1     1     2 1   
     2     1    21 1   
     3     2     3 ar  
     4     2     4 ar  
     5     3     8 ar  
     6     3    22 1   
     7     4     5 1   
     8     4     6 ar  
     9     5    23 1   
    10     6     7 ar  
    11     6    24 1   
    12     7     8 ar  
    13     7    25 1   
    14     8     9 1   
    15     9    10 1   
    16     9    11 2   
    17    10    15 1   
    18    11    12 1   
    19    11    26 1   
    20    12    13 2   
    21    12    14 1   
    22    14    15 ar  
    23    14    19 ar  
    24    15    16 ar  
    25    16    17 ar  
    26    16    27 1   
    27    17    18 ar  
    28    17    28 1   
    29    18    19 ar  
    30    18    29 1   
    31    19    20 1   
    32    20    30 1   
@<TRIPOS>SUBSTRUCTURE
     1 6BK         1 TEMP              0 ****  ****    0 ROOT
