@<TRIPOS>MOLECULE
6BM
   20    20     1     0     0
SMALL
No Charge or Current Charge


@<TRIPOS>ATOM
      1 N01          1.9540    -0.4700     0.3340 n          1 6BM      -0.295300
      2 C02          2.5300     0.8790     0.5410 c6         1 6BM       0.153000
      3 C03          1.8630     1.9340    -0.3640 c6         1 6BM      -0.099400
      4 C04          0.3350     1.8550    -0.2150 c6         1 6BM      -0.032400
      5 C05         -0.2050     0.4540    -0.6280 c6         1 6BM      -0.402700
      6 C06          0.7660    -0.7050    -0.4200 c          1 6BM       0.610000
      7 O07          2.8690    -1.5610     0.6060 oh         1 6BM      -0.519100
      8 O08          0.5800    -1.7910    -0.9580 o          1 6BM      -0.619000
      9 P09         -1.6910    -0.0080     0.3190 p5         1 6BM       1.284500
     10 O10         -1.3010    -0.4580     1.6850 o          1 6BM      -0.914500
     11 O11         -2.5730     1.1890     0.4260 o          1 6BM      -0.914500
     12 O12         -2.4360    -1.0880    -0.3880 o          1 6BM      -0.914500
     13 H1           2.3890     1.1600     1.5950 h1         1 6BM       0.009700
     14 H2           3.6110     0.8580     0.3430 h1         1 6BM       0.009700
     15 H3           2.2210     2.9370    -0.0950 hc         1 6BM       0.008700
     16 H4           2.1480     1.7650    -1.4120 hc         1 6BM       0.008700
     17 H5           0.0810     2.0680     0.8340 hc         1 6BM       0.052700
     18 H6          -0.1500     2.6390    -0.8130 hc         1 6BM       0.052700
     19 H7          -0.5210     0.4420    -1.6770 hc         1 6BM       0.055700
     20 H8           3.3310    -1.7280    -0.2490 ho         1 6BM       0.468000
@<TRIPOS>BOND
     1     1     2 1   
     2     1     6 1   
     3     1     7 1   
     4     2     3 1   
     5     2    13 1   
     6     2    14 1   
     7     3     4 1   
     8     3    15 1   
     9     3    16 1   
    10     4     5 1   
    11     4    17 1   
    12     4    18 1   
    13     5     6 1   
    14     5     9 1   
    15     5    19 1   
    16     6     8 2   
    17     7    20 1   
    18     9    10 1   
    19     9    11 1   
    20     9    12 1   
@<TRIPOS>SUBSTRUCTURE
     1 6BM         1 TEMP              0 ****  ****    0 ROOT
