@<TRIPOS>MOLECULE
6BM
   20    20     1     0     0
SMALL
abcg2


@<TRIPOS>ATOM
      1 N01          2.0280    -0.3250     0.2690 n          1 6BM      -0.295300
      2 C02          2.6270     0.9800     0.4320 c6         1 6BM       0.153000
      3 C03          1.8200     2.0120    -0.3320 c6         1 6BM      -0.099400
      4 C04          0.3390     1.7850    -0.0740 c6         1 6BM      -0.032400
      5 C05         -0.1170     0.4240    -0.5940 c6         1 6BM      -0.402700
      6 C06          0.8920    -0.6510    -0.3800 c          1 6BM       0.610000
      7 O07          2.9050    -1.3630     0.5060 oh         1 6BM      -0.519100
      8 O08          0.7440    -1.8300    -0.7250 o          1 6BM      -0.619000
      9 P09         -1.7590    -0.0800     0.2260 p5         1 6BM       1.284500
     10 O10         -1.3370    -0.4850     1.6410 o          1 6BM      -0.914500
     11 O11         -2.5850     1.2090     0.1600 o          1 6BM      -0.914500
     12 O12         -2.3320    -1.2170    -0.6170 o          1 6BM      -0.914500
     13 H1           2.6720     1.2390     1.4940 h1         1 6BM       0.009700
     14 H2           3.6540     0.9330     0.0620 h1         1 6BM       0.009700
     15 H3           2.1370     3.0060    -0.0150 hc         1 6BM       0.008700
     16 H4           2.0310     1.9310    -1.4030 hc         1 6BM       0.008700
     17 H5           0.1530     1.8510     1.0020 hc         1 6BM       0.052700
     18 H6          -0.2610     2.5660    -0.5380 hc         1 6BM       0.052700
     19 H7          -0.2860     0.4830    -1.6750 hc         1 6BM       0.055700
     20 H8           2.4770    -2.0970     0.0250 ho         1 6BM       0.468000
@<TRIPOS>BOND
     1     1     2 1   
     2     1     6 1   
     3     1     7 1   
     4     2     3 1   
     5     2    13 1   
     6     2    14 1   
     7     3     4 1   
     8     3    15 1   
     9     3    16 1   
    10     4     5 1   
    11     4    17 1   
    12     4    18 1   
    13     5     6 1   
    14     5     9 1   
    15     5    19 1   
    16     6     8 2   
    17     7    20 1   
    18     9    10 1   
    19     9    11 1   
    20     9    12 1   
@<TRIPOS>SUBSTRUCTURE
     1 6BM         1 TEMP              0 ****  ****    0 ROOT
