@<TRIPOS>MOLECULE
6BN
   67    70     1     0     0
SMALL
bcc


@<TRIPOS>ATOM
      1 C4           0.8920    -2.4520     0.6800 ca         1 6BN      -0.077300
      2 C5           1.1270    -1.0820     0.8600 ca         1 6BN      -0.092600
      3 C6           0.0610    -0.1970     0.9700 ca         1 6BN       0.035400
      4 C8           2.5490    -0.6250     1.0290 c          1 6BN       0.719100
      5 C10          3.1150    -2.5550    -0.3390 c6         1 6BN       0.115000
      6 C13          5.1910     0.3120    -0.2640 cc         1 6BN      -0.251400
      7 C15          5.8970     2.6130    -0.4960 cd         1 6BN      -0.246000
      8 C22          7.2870     1.1480     2.1590 c3         1 6BN      -0.086100
      9 C26         -3.5960    -0.0820     0.9460 c6         1 6BN       0.157100
     10 C28         -5.4950    -0.5550    -0.6070 c6         1 6BN       0.096500
     11 C1          -1.2620    -0.6600     0.9520 ca         1 6BN       0.150100
     12 C2          -1.4910    -2.0250     0.8440 ca         1 6BN      -0.200000
     13 C3          -0.4200    -2.8930     0.7040 ca         1 6BN       0.058400
     14 CL7          0.2730     1.5110     1.0630 cl         1 6BN      -0.050400
     15 N9           3.4830    -1.3570     0.3990 n          1 6BN      -0.466800
     16 C11          2.0740    -3.3380     0.4330 c6         1 6BN      -0.053100
     17 C12          4.8800    -0.9470     0.4970 c3         1 6BN       0.179200
     18 C14          5.6190     1.4800     0.3160 cd         1 6BN       0.065800
     19 C16          5.7330     2.5520    -1.8430 cc         1 6BN       0.073400
     20 N17          5.3160     1.3840    -2.3900 ns         1 6BN      -0.429100
     21 C18          5.0430     0.2250    -1.6960 c          1 6BN       0.703700
     22 O19          4.7080    -0.7890    -2.3100 o          1 6BN      -0.663500
     23 O23          2.8210     0.3310     1.7380 o          1 6BN      -0.624500
     24 CL          -0.7720    -4.5820     0.5510 cl         1 6BN      -0.106400
     25 O25         -2.2190     0.2660     1.0650 os         1 6BN      -0.305900
     26 C27         -3.9890    -0.3400    -0.5030 c6         1 6BN      -0.117400
     27 N29         -6.2100     0.5780    -0.0460 n          1 6BN      -0.464800
     28 C30         -5.8840     0.8210     1.3500 c6         1 6BN       0.096500
     29 C31         -4.3920     1.0800     1.5170 c6         1 6BN      -0.117400
     30 C32         -6.9640     1.4480    -0.7380 c          1 6BN       0.636100
     31 C33         -7.3090     1.1460    -2.2010 c3         1 6BN       0.080100
     32 C34         -8.3990     0.0750    -2.2500 c3         1 6BN      -0.122100
     33 O35         -7.7230     2.3310    -2.8230 oh         1 6BN      -0.587800
     34 O36         -7.4520     2.4560    -0.2340 o          1 6BN      -0.614100
     35 H1           2.7370    -2.3010    -1.3320 h1         1 6BN       0.063200
     36 H2           4.0110    -3.1560    -0.4770 h1         1 6BN       0.063200
     37 H3           6.2360     3.5340    -0.0430 ha         1 6BN       0.147000
     38 H4           6.6760     3.4140    -3.5620 hc         1 6BN       0.058367
     39 H5           5.0440     3.9980    -3.2580 hc         1 6BN       0.058367
     40 H6           6.3770     4.5450    -2.2390 hc         1 6BN       0.058367
     41 H7           5.1360     1.0620     2.3590 hc         1 6BN       0.066700
     42 H8           5.7670     2.6650     2.0720 hc         1 6BN       0.066700
     43 H9           7.4230     0.0880     1.9360 hc         1 6BN       0.035033
     44 H10          8.0480     1.7040     1.6100 hc         1 6BN       0.035033
     45 H11          7.4700     1.2900     3.2240 hc         1 6BN       0.035033
     46 H12         -3.8100    -0.9700     1.5550 h1         1 6BN       0.045700
     47 H13         -5.7690    -0.7250    -1.6430 h1         1 6BN       0.061200
     48 H14         -5.7880    -1.4560    -0.0580 h1         1 6BN       0.061200
     49 H15         -2.4950    -2.4250     0.8490 ha         1 6BN       0.151000
     50 H16          2.4930    -3.7030     1.3760 hc         1 6BN       0.069200
     51 H17          1.7860    -4.2140    -0.1480 hc         1 6BN       0.069200
     52 H18          5.4760    -1.7710     0.1050 h1         1 6BN       0.058200
     53 H19          5.1550    -0.8430     1.5470 h1         1 6BN       0.058200
     54 H20          5.2120     1.3300    -3.3950 hn         1 6BN       0.323500
     55 H21         -3.7010     0.5180    -1.1150 hc         1 6BN       0.069700
     56 H22         -3.4800    -1.2170    -0.9070 hc         1 6BN       0.069700
     57 H23         -6.4600     1.6640     1.7190 h1         1 6BN       0.061200
     58 H24         -6.1800    -0.0580     1.9310 h1         1 6BN       0.061200
     59 H25         -4.1660     1.2080     2.5780 hc         1 6BN       0.069700
     60 H26         -4.1190     2.0060     1.0030 hc         1 6BN       0.069700
     61 H27         -6.4280     0.7950    -2.7440 h1         1 6BN       0.073700
     62 H28         -8.6870    -0.1170    -3.2830 hc         1 6BN       0.047367
     63 H29         -8.0670    -0.8700    -1.8180 hc         1 6BN       0.047367
     64 H30         -9.2840     0.4010    -1.7020 hc         1 6BN       0.047367
     65 H31         -8.1210     2.8790    -2.1340 ho         1 6BN       0.433000
     66 C20          5.9730     3.6900    -2.7750 c3         1 6BN      -0.070900
     67 C21          5.8800     1.6160     1.7900 c3         1 6BN      -0.056200
@<TRIPOS>BOND
     1     1     2 ar  
     2     1    13 ar  
     3     1    16 1   
     4     2     3 ar  
     5     2     4 1   
     6     3    11 ar  
     7     3    14 1   
     8     4    15 1   
     9     4    23 2   
    10     5    15 1   
    11     5    16 1   
    12     5    35 1   
    13     5    36 1   
    14     6    17 1   
    15     6    18 2   
    16     6    21 1   
    17     7    18 1   
    18     7    19 2   
    19     7    37 1   
    20     8    43 1   
    21     8    44 1   
    22     8    45 1   
    23     8    67 1   
    24     9    25 1   
    25     9    26 1   
    26     9    29 1   
    27     9    46 1   
    28    10    26 1   
    29    10    27 1   
    30    10    47 1   
    31    10    48 1   
    32    11    12 ar  
    33    11    25 1   
    34    12    13 ar  
    35    12    49 1   
    36    13    24 1   
    37    15    17 1   
    38    16    50 1   
    39    16    51 1   
    40    17    52 1   
    41    17    53 1   
    42    18    67 1   
    43    19    20 1   
    44    19    66 1   
    45    20    21 1   
    46    20    54 1   
    47    21    22 2   
    48    26    55 1   
    49    26    56 1   
    50    27    28 1   
    51    27    30 1   
    52    28    29 1   
    53    28    57 1   
    54    28    58 1   
    55    29    59 1   
    56    29    60 1   
    57    30    31 1   
    58    30    34 2   
    59    31    32 1   
    60    31    33 1   
    61    31    61 1   
    62    32    62 1   
    63    32    63 1   
    64    32    64 1   
    65    33    65 1   
    66    38    66 1   
    67    39    66 1   
    68    40    66 1   
    69    41    67 1   
    70    42    67 1   
@<TRIPOS>SUBSTRUCTURE
     1 6BN         1 TEMP              0 ****  ****    0 ROOT
