@<TRIPOS>MOLECULE
6BN
   67    70     1     0     0
SMALL
No Charge or Current Charge


@<TRIPOS>ATOM
      1 C4           0.8690    -2.4250     0.6980 ca         1 6BN      -0.077300
      2 C5           1.0970    -1.0510     0.9790 ca         1 6BN      -0.092600
      3 C6          -0.0260    -0.2110     1.2290 ca         1 6BN       0.127000
      4 C8           2.5320    -0.5330     1.0360 c          1 6BN       0.576600
      5 C10          3.1670    -2.5420    -0.3300 c6         1 6BN       0.115000
      6 C13          5.2870     0.3150    -0.3040 cc         1 6BN      -0.251400
      7 C15          5.9750     2.6230    -0.6320 cd         1 6BN      -0.296000
      8 C22          7.3610     1.3220     2.1800 c3         1 6BN      -0.086100
      9 C26         -3.7670    -0.2200     1.1920 c6         1 6BN       0.180300
     10 C28         -5.5130    -0.5490    -0.6440 c6         1 6BN       0.096500
     11 C1          -1.3370    -0.7400     1.2210 ca         1 6BN       0.150100
     12 C2          -1.5340    -2.1150     0.9860 ca         1 6BN      -0.182000
     13 C3          -0.4430    -2.9480     0.7220 ca         1 6BN       0.150000
     14 Cl7          0.1330     1.5360     1.5000 cl         1 6BN      -0.142000
     15 N9           3.5300    -1.3300     0.4300 n          1 6BN      -0.399800
     16 C11          2.0690    -3.3280     0.3950 c6         1 6BN      -0.053100
     17 C12          4.9650    -0.9440     0.4840 c3         1 6BN       0.179200
     18 C14          5.7120     1.5190     0.2610 cd         1 6BN       0.065800
     19 C16          5.8180     2.4840    -1.9890 cc         1 6BN       0.073400
     20 N17          5.4320     1.2750    -2.5040 ns         1 6BN      -0.362100
     21 C18          5.1650     0.1520    -1.7770 c          1 6BN       0.561200
     22 O19          4.8660    -0.8850    -2.3490 o          1 6BN      -0.588000
     23 O23          2.8390     0.4800     1.6470 o          1 6BN      -0.549000
     24 Cl          -0.7700    -4.6590     0.4430 cl         1 6BN      -0.198000
     25 O25         -2.3940     0.1230     1.4740 os         1 6BN      -0.329100
     26 C27         -4.0160    -0.3100    -0.3380 c6         1 6BN      -0.117400
     27 N29         -6.3540     0.5050    -0.0150 n          1 6BN      -0.397800
     28 C30         -6.1690     0.5850     1.4590 c6         1 6BN       0.096500
     29 C31         -4.6890     0.8550     1.8110 c6         1 6BN      -0.117400
     30 C32         -7.0140     1.5310    -0.7410 c          1 6BN       0.569100
     31 C33         -7.2840     1.3620    -2.2770 c3         1 6BN       0.103300
     32 C34         -8.2730     0.2110    -2.5810 c3         1 6BN      -0.122100
     33 O35         -7.8190     2.5780    -2.8490 oh         1 6BN      -0.650000
     34 O36         -7.4130     2.5420    -0.1690 o          1 6BN      -0.614100
     35 H1           2.8030    -2.2450    -1.3240 h1         1 6BN       0.063200
     36 H2           4.0440    -3.1880    -0.4750 h1         1 6BN       0.063200
     37 H3           6.3050     3.5770    -0.2290 ha         1 6BN       0.197000
     38 H4           6.8640     3.2670    -3.7030 hc         1 6BN       0.058367
     39 H5           5.1530     3.7360    -3.6130 hc         1 6BN       0.058367
     40 H6           6.3400     4.5020    -2.5470 hc         1 6BN       0.058367
     41 H7           5.2100     1.1870     2.3480 hc         1 6BN       0.066700
     42 H8           5.7910     2.7880     1.9950 hc         1 6BN       0.066700
     43 H9           7.5360     0.2580     1.9830 hc         1 6BN       0.035033
     44 H10          8.1150     1.9030     1.6360 hc         1 6BN       0.035033
     45 H11          7.4970     1.5000     3.2540 hc         1 6BN       0.035033
     46 H12         -4.0090    -1.1790     1.6700 h1         1 6BN       0.045700
     47 H13         -5.6520    -0.5950    -1.7310 h1         1 6BN       0.061200
     48 H14         -5.8140    -1.5290    -0.2440 h1         1 6BN       0.061200
     49 H15         -2.5230    -2.5590     1.0030 ha         1 6BN       0.133000
     50 H16          2.4650    -3.7430     1.3320 hc         1 6BN       0.069200
     51 H17          1.7900    -4.1810    -0.2360 hc         1 6BN       0.069200
     52 H18          5.5800    -1.7660     0.0930 h1         1 6BN       0.058200
     53 H19          5.2520    -0.8320     1.5360 h1         1 6BN       0.058200
     54 H20          5.3400     1.1670    -3.5060 hn         1 6BN       0.323500
     55 H21         -3.6880     0.6210    -0.8210 hc         1 6BN       0.069700
     56 H22         -3.4220    -1.1190    -0.7820 hc         1 6BN       0.069700
     57 H23         -6.8020     1.3700     1.8950 h1         1 6BN       0.061200
     58 H24         -6.4850    -0.3670     1.9090 h1         1 6BN       0.061200
     59 H25         -4.5640     0.8700     2.9020 hc         1 6BN       0.069700
     60 H26         -4.4010     1.8500     1.4450 hc         1 6BN       0.069700
     61 H27         -6.3210     1.1320    -2.7510 h1         1 6BN       0.073700
     62 H28         -8.4170     0.1040    -3.6630 hc         1 6BN       0.047367
     63 H29         -7.9060    -0.7460    -2.1940 hc         1 6BN       0.047367
     64 H30         -9.2490     0.4090    -2.1230 hc         1 6BN       0.047367
     65 H31         -7.9910     3.1740    -2.0800 ho         1 6BN       0.472000
     66 C20          6.0560     3.5540    -3.0190 c3         1 6BN      -0.070900
     67 C21          5.9410     1.7320     1.7430 c3         1 6BN      -0.056200
@<TRIPOS>BOND
     1     1     2 ar  
     2     1    13 ar  
     3     1    16 1   
     4     2     3 ar  
     5     2     4 1   
     6     3    11 ar  
     7     3    14 1   
     8     4    15 1   
     9     4    23 2   
    10     5    15 1   
    11     5    16 1   
    12     5    35 1   
    13     5    36 1   
    14     6    17 1   
    15     6    18 2   
    16     6    21 1   
    17     7    18 1   
    18     7    19 2   
    19     7    37 1   
    20     8    43 1   
    21     8    44 1   
    22     8    45 1   
    23     8    67 1   
    24     9    25 1   
    25     9    26 1   
    26     9    29 1   
    27     9    46 1   
    28    10    26 1   
    29    10    27 1   
    30    10    47 1   
    31    10    48 1   
    32    11    12 ar  
    33    11    25 1   
    34    12    13 ar  
    35    12    49 1   
    36    13    24 1   
    37    15    17 1   
    38    16    50 1   
    39    16    51 1   
    40    17    52 1   
    41    17    53 1   
    42    18    67 1   
    43    19    20 1   
    44    19    66 1   
    45    20    21 1   
    46    20    54 1   
    47    21    22 2   
    48    26    55 1   
    49    26    56 1   
    50    27    28 1   
    51    27    30 1   
    52    28    29 1   
    53    28    57 1   
    54    28    58 1   
    55    29    59 1   
    56    29    60 1   
    57    30    31 1   
    58    30    34 2   
    59    31    32 1   
    60    31    33 1   
    61    31    61 1   
    62    32    62 1   
    63    32    63 1   
    64    32    64 1   
    65    33    65 1   
    66    38    66 1   
    67    39    66 1   
    68    40    66 1   
    69    41    67 1   
    70    42    67 1   
@<TRIPOS>SUBSTRUCTURE
     1 6BN         1 TEMP              0 ****  ****    0 ROOT
