@<TRIPOS>MOLECULE
6BS
   60    62     1     0     0
SMALL
abcg2


@<TRIPOS>ATOM
      1 C27          8.1440     2.5480    -0.6950 c3         1 6BS      -0.085767
      2 C26          8.1200     1.4500     0.3710 c3         1 6BS      -0.041000
      3 C28          8.9600     0.2590    -0.0930 c3         1 6BS      -0.085767
      4 C29          8.7150     2.0100     1.6640 c3         1 6BS      -0.085767
      5 C25          6.6760     1.0140     0.6730 c3         1 6BS      -0.086400
      6 C23          5.9370     0.3530    -0.4830 c3         1 6BS       0.101000
      7 N21          4.5650     0.0800    -0.1100 ns         1 6BS      -0.506900
      8 C20          3.8340    -0.9310    -0.6020 c          1 6BS       0.598100
      9 O22          4.2690    -1.7440    -1.4080 o          1 6BS      -0.614100
     10 C19          2.4200    -1.0220    -0.0640 c3         1 6BS      -0.162400
     11 C18          1.4140    -1.3880    -1.1580 c3         1 6BS      -0.012100
     12 C9           0.0290    -1.5680    -0.6090 ca         1 6BS      -0.178300
     13 C8          -0.3490    -2.7650     0.0960 ca         1 6BS       0.619900
     14 N7          -1.5380    -2.9420     0.6220 nb         1 6BS      -0.761000
     15 N24          0.5650    -3.7570     0.2740 nv         1 6BS      -1.063900
     16 C10         -0.9120    -0.5920    -0.7210 ca         1 6BS      -0.031000
     17 C5          -2.2020    -0.7480    -0.1580 ca         1 6BS      -0.128000
     18 C6          -3.2010     0.2400    -0.2430 ca         1 6BS      -0.064000
     19 C4          -2.4630    -1.9620     0.5150 ca         1 6BS       0.327000
     20 C3          -3.7400    -2.1470     1.0860 ca         1 6BS      -0.107000
     21 C2          -4.6980    -1.1720     0.9850 ca         1 6BS      -0.077000
     22 C1          -4.4450     0.0470     0.3150 cp         1 6BS      -0.055000
     23 C11         -5.4740     1.1100     0.2470 cp         1 6BS      -0.035000
     24 C12         -5.1590     2.3800     0.7340 ca         1 6BS      -0.099000
     25 C13         -6.0780     3.4170     0.6960 ca         1 6BS      -0.116000
     26 C14         -7.3370     3.1910     0.1600 ca         1 6BS      -0.105000
     27 C15         -7.6560     1.9350    -0.3350 ca         1 6BS      -0.114000
     28 C16         -6.7450     0.8810    -0.3020 ca         1 6BS      -0.059300
     29 C17         -7.1450    -0.4520    -0.8730 c3         1 6BS      -0.048800
     30 H1           7.7530     2.2050    -1.6540 hc         1 6BS       0.034811
     31 H2           7.5510     3.4110    -0.3830 hc         1 6BS       0.034811
     32 H3           9.1640     2.8960    -0.8680 hc         1 6BS       0.034811
     33 H4          10.0040     0.5520    -0.2210 hc         1 6BS       0.034811
     34 H5           8.9320    -0.5540     0.6350 hc         1 6BS       0.034811
     35 H6           8.6180    -0.1400    -1.0500 hc         1 6BS       0.034811
     36 H7           8.1380     2.8640     2.0240 hc         1 6BS       0.034811
     37 H8           8.7260     1.2570     2.4560 hc         1 6BS       0.034811
     38 H9           9.7430     2.3450     1.5120 hc         1 6BS       0.034811
     39 H10          6.6860     0.3190     1.5190 hc         1 6BS       0.041700
     40 H11          6.1110     1.8940     1.0020 hc         1 6BS       0.041700
     41 H12          5.9590     0.9890    -1.3730 h1         1 6BS       0.055200
     42 H13          6.4130    -0.5890    -0.7530 h1         1 6BS       0.055200
     43 H14          4.1070     0.7490     0.4880 hn         1 6BS       0.309500
     44 H15          2.4180    -1.7830     0.7240 hc         1 6BS       0.065200
     45 H16          2.1180    -0.0870     0.4110 hc         1 6BS       0.065200
     46 H17          1.3950    -0.5960    -1.9080 hc         1 6BS       0.058200
     47 H18          1.7480    -2.2870    -1.6820 hc         1 6BS       0.058200
     48 H19          0.2060    -4.6410     0.5950 hn         1 6BS       0.478500
     49 H20          1.3400    -3.8330    -0.3620 hn         1 6BS       0.478500
     50 H21         -0.6720     0.3260    -1.2470 ha         1 6BS       0.115000
     51 H22         -2.9780     1.1620    -0.7680 ha         1 6BS       0.114000
     52 H23         -3.9480    -3.0710     1.6110 ha         1 6BS       0.129000
     53 H24         -5.6660    -1.3330     1.4440 ha         1 6BS       0.117000
     54 H25         -4.1780     2.5500     1.1620 ha         1 6BS       0.113000
     55 H26         -5.8100     4.3910     1.0840 ha         1 6BS       0.113000
     56 H27         -8.0670     3.9890     0.1200 ha         1 6BS       0.112000
     57 H28         -8.6350     1.7690    -0.7690 ha         1 6BS       0.110000
     58 H29         -7.4800    -1.1380    -0.0930 hc         1 6BS       0.043700
     59 H30         -7.9690    -0.3370    -1.5760 hc         1 6BS       0.043700
     60 H31         -6.3210    -0.9380    -1.3950 hc         1 6BS       0.043700
@<TRIPOS>BOND
     1     1     2 1   
     2     1    30 1   
     3     1    31 1   
     4     1    32 1   
     5     2     3 1   
     6     2     4 1   
     7     2     5 1   
     8     3    33 1   
     9     3    34 1   
    10     3    35 1   
    11     4    36 1   
    12     4    37 1   
    13     4    38 1   
    14     5     6 1   
    15     5    39 1   
    16     5    40 1   
    17     6     7 1   
    18     6    41 1   
    19     6    42 1   
    20     7     8 1   
    21     7    43 1   
    22     8     9 2   
    23     8    10 1   
    24    10    11 1   
    25    10    44 1   
    26    10    45 1   
    27    11    12 1   
    28    11    46 1   
    29    11    47 1   
    30    12    13 ar  
    31    12    16 ar  
    32    13    14 ar  
    33    13    15 1   
    34    14    19 ar  
    35    15    48 1   
    36    15    49 1   
    37    16    17 ar  
    38    16    50 1   
    39    17    18 ar  
    40    17    19 ar  
    41    18    22 ar  
    42    18    51 1   
    43    19    20 ar  
    44    20    21 ar  
    45    20    52 1   
    46    21    22 ar  
    47    21    53 1   
    48    22    23 1   
    49    23    24 ar  
    50    23    28 ar  
    51    24    25 ar  
    52    24    54 1   
    53    25    26 ar  
    54    25    55 1   
    55    26    27 ar  
    56    26    56 1   
    57    27    28 ar  
    58    27    57 1   
    59    28    29 1   
    60    29    58 1   
    61    29    59 1   
    62    29    60 1   
@<TRIPOS>SUBSTRUCTURE
     1 6BS         1 TEMP              0 ****  ****    0 ROOT
