@<TRIPOS>MOLECULE
6BS
   60    62     1     0     0
SMALL
No Charge or Current Charge


@<TRIPOS>ATOM
      1 C27          8.1230     2.8520    -0.3060 c3         1 6BS      -0.085767
      2 C26          8.1050     1.3820     0.1930 c3         1 6BS      -0.041000
      3 C28          8.7390     0.4630    -0.8860 c3         1 6BS      -0.085767
      4 C29          8.9560     1.2870     1.4870 c3         1 6BS      -0.085767
      5 C25          6.6480     0.9250     0.5250 c3         1 6BS      -0.086400
      6 C23          5.6400     0.9500    -0.6510 c3         1 6BS       0.101000
      7 N21          4.3030     0.5190    -0.2340 ns         1 6BS      -0.506900
      8 C20          3.9150    -0.7920    -0.0710 c          1 6BS       0.598100
      9 O22          4.6690    -1.7310    -0.2770 o          1 6BS      -0.614100
     10 C19          2.4770    -0.9860     0.4180 c3         1 6BS      -0.162400
     11 C18          1.5630    -1.5110    -0.7110 c3         1 6BS      -0.012100
     12 C9           0.1190    -1.6900    -0.2420 ca         1 6BS      -0.178300
     13 C8          -0.3440    -2.8670     0.3790 ca         1 6BS       0.619900
     14 N7          -1.5830    -3.0750     0.8030 nb         1 6BS      -0.761000
     15 N24          0.3960    -3.9530     0.6200 nv         1 6BS      -1.063900
     16 C10         -0.8080    -0.6490    -0.4140 ca         1 6BS      -0.031000
     17 C5          -2.1270    -0.8450     0.0320 ca         1 6BS      -0.128000
     18 C6          -3.0840     0.1770    -0.1250 ca         1 6BS      -0.064000
     19 C4          -2.4810    -2.0770     0.6380 ca         1 6BS       0.327000
     20 C3          -3.8050    -2.2490     1.0790 ca         1 6BS      -0.107000
     21 C2          -4.7590    -1.2300     0.9220 ca         1 6BS      -0.077000
     22 C1          -4.4180    -0.0020     0.3080 cp         1 6BS      -0.055000
     23 C11         -5.4210     1.0940     0.1470 cp         1 6BS      -0.035000
     24 C12         -5.1260     2.3780     0.6680 ca         1 6BS      -0.099000
     25 C13         -6.0380     3.4380     0.5510 ca         1 6BS      -0.116000
     26 C14         -7.2650     3.2350    -0.0960 ca         1 6BS      -0.105000
     27 C15         -7.5740     1.9740    -0.6310 ca         1 6BS      -0.114000
     28 C16         -6.6650     0.9010    -0.5230 ca         1 6BS      -0.059300
     29 C17         -7.0460    -0.4310    -1.1630 c3         1 6BS      -0.048800
     30 H1           7.6030     2.9580    -1.2650 hc         1 6BS       0.034811
     31 H2           7.6400     3.5190     0.4190 hc         1 6BS       0.034811
     32 H3           9.1520     3.2020    -0.4510 hc         1 6BS       0.034811
     33 H4           9.7900     0.7260    -1.0530 hc         1 6BS       0.034811
     34 H5           8.6990    -0.5890    -0.5780 hc         1 6BS       0.034811
     35 H6           8.2200     0.5560    -1.8480 hc         1 6BS       0.034811
     36 H7           8.5460     1.9310     2.2750 hc         1 6BS       0.034811
     37 H8           8.9780     0.2590     1.8680 hc         1 6BS       0.034811
     38 H9           9.9910     1.5990     1.3020 hc         1 6BS       0.034811
     39 H10          6.6820    -0.0940     0.9300 hc         1 6BS       0.041700
     40 H11          6.2520     1.5590     1.3280 hc         1 6BS       0.041700
     41 H12          5.5590     1.9680    -1.0520 h1         1 6BS       0.055200
     42 H13          5.9850     0.2940    -1.4600 h1         1 6BS       0.055200
     43 H14          3.6090     1.2290    -0.0320 hn         1 6BS       0.309500
     44 H15          2.4800    -1.7190     1.2330 hc         1 6BS       0.065200
     45 H16          2.0700    -0.0340     0.7800 hc         1 6BS       0.065200
     46 H17          1.5980    -0.8060    -1.5520 hc         1 6BS       0.058200
     47 H18          1.9650    -2.4540    -1.1000 hc         1 6BS       0.058200
     48 H19         -0.1440    -4.7770     0.8520 hn         1 6BS       0.478500
     49 H20          1.2200    -4.0960     0.0490 hn         1 6BS       0.478500
     50 H21         -0.5120     0.2880    -0.8810 ha         1 6BS       0.115000
     51 H22         -2.7990     1.1160    -0.5930 ha         1 6BS       0.114000
     52 H23         -4.0920    -3.1840     1.5520 ha         1 6BS       0.129000
     53 H24         -5.7710    -1.3870     1.2880 ha         1 6BS       0.117000
     54 H25         -4.1810     2.5450     1.1790 ha         1 6BS       0.113000
     55 H26         -5.7940     4.4150     0.9640 ha         1 6BS       0.113000
     56 H27         -7.9740     4.0540    -0.1880 ha         1 6BS       0.112000
     57 H28         -8.5250     1.8330    -1.1390 ha         1 6BS       0.110000
     58 H29         -7.4900    -1.1090    -0.4250 hc         1 6BS       0.043700
     59 H30         -7.7790    -0.2950    -1.9670 hc         1 6BS       0.043700
     60 H31         -6.1760    -0.9300    -1.6050 hc         1 6BS       0.043700
@<TRIPOS>BOND
     1     1     2 1   
     2     1    30 1   
     3     1    31 1   
     4     1    32 1   
     5     2     3 1   
     6     2     4 1   
     7     2     5 1   
     8     3    33 1   
     9     3    34 1   
    10     3    35 1   
    11     4    36 1   
    12     4    37 1   
    13     4    38 1   
    14     5     6 1   
    15     5    39 1   
    16     5    40 1   
    17     6     7 1   
    18     6    41 1   
    19     6    42 1   
    20     7     8 1   
    21     7    43 1   
    22     8     9 2   
    23     8    10 1   
    24    10    11 1   
    25    10    44 1   
    26    10    45 1   
    27    11    12 1   
    28    11    46 1   
    29    11    47 1   
    30    12    13 ar  
    31    12    16 ar  
    32    13    14 ar  
    33    13    15 1   
    34    14    19 ar  
    35    15    48 1   
    36    15    49 1   
    37    16    17 ar  
    38    16    50 1   
    39    17    18 ar  
    40    17    19 ar  
    41    18    22 ar  
    42    18    51 1   
    43    19    20 ar  
    44    20    21 ar  
    45    20    52 1   
    46    21    22 ar  
    47    21    53 1   
    48    22    23 1   
    49    23    24 ar  
    50    23    28 ar  
    51    24    25 ar  
    52    24    54 1   
    53    25    26 ar  
    54    25    55 1   
    55    26    27 ar  
    56    26    56 1   
    57    27    28 ar  
    58    27    57 1   
    59    28    29 1   
    60    29    58 1   
    61    29    59 1   
    62    29    60 1   
@<TRIPOS>SUBSTRUCTURE
     1 6BS         1 TEMP              0 ****  ****    0 ROOT
