@<TRIPOS>MOLECULE
6BT
   25    26     1     0     0
SMALL
No Charge or Current Charge


@<TRIPOS>ATOM
      1 CAJ          0.5700    -2.1820     0.2200 c6         1 6BT      -0.075100
      2 CAG         -2.1270     1.2390     0.3320 c3         1 6BT       0.160600
      3 CAI         -0.8340    -2.3140    -0.3990 c6         1 6BT       0.154800
      4 CAL          1.1250    -0.7610     0.1170 ca         1 6BT      -0.070300
      5 OAA         -3.5460     1.0600     0.1600 oh         1 6BT      -0.644000
      6 CAN         -1.2570     0.1240    -0.3660 c6         1 6BT       0.215800
      7 NAK         -1.7000    -1.2270     0.0930 n7         1 6BT      -0.836400
      8 CAM          0.2670     0.3370    -0.1530 ca         1 6BT      -0.112300
      9 CAE          2.5060    -0.5550     0.2990 ca         1 6BT      -0.108000
     10 CAC          3.0520     0.7330     0.1960 ca         1 6BT      -0.106000
     11 CAD          2.2180     1.8210    -0.0990 ca         1 6BT      -0.112000
     12 CAF          0.8390     1.6250    -0.2780 ca         1 6BT      -0.106000
     13 H1           0.5300    -2.4760     1.2780 hc         1 6BT       0.052700
     14 H2           1.2490    -2.8920    -0.2720 hc         1 6BT       0.052700
     15 H3          -1.8430     2.2180    -0.0730 h1         1 6BT       0.020200
     16 H4          -1.8790     1.2450     1.4020 h1         1 6BT       0.020200
     17 H5          -0.7650    -2.2670    -1.4970 h1         1 6BT       0.057700
     18 H6          -1.2650    -3.2910    -0.1330 h1         1 6BT       0.057700
     19 H7          -3.9880     1.7620     0.6870 ho         1 6BT       0.439000
     20 H8          -1.4450     0.2020    -1.4480 h1         1 6BT       0.082700
     21 H9          -1.6730    -1.2360     1.1180 hn         1 6BT       0.410000
     22 H11          3.1580    -1.3970     0.5170 ha         1 6BT       0.111000
     23 H12          4.1200     0.8860     0.3350 ha         1 6BT       0.113000
     24 H13          2.6420     2.8190    -0.1940 ha         1 6BT       0.113000
     25 H14          0.2250     2.4860    -0.5250 ha         1 6BT       0.110000
@<TRIPOS>BOND
     1     1     3 1   
     2     1     4 1   
     3     1    13 1   
     4     1    14 1   
     5     2     5 1   
     6     2     6 1   
     7     2    15 1   
     8     2    16 1   
     9     3     7 1   
    10     3    17 1   
    11     3    18 1   
    12     4     8 ar  
    13     4     9 ar  
    14     5    19 1   
    15     6     7 1   
    16     6     8 1   
    17     6    20 1   
    18     7    21 1   
    19     8    12 ar  
    20     9    10 ar  
    21     9    22 1   
    22    10    11 ar  
    23    10    23 1   
    24    11    12 ar  
    25    11    24 1   
    26    12    25 1   
@<TRIPOS>SUBSTRUCTURE
     1 6BT         1 TEMP              0 ****  ****    0 ROOT
