@<TRIPOS>MOLECULE
6BT
   25    26     1     0     0
SMALL
abcg2


@<TRIPOS>ATOM
      1 CAJ          0.5260    -2.1270     0.3150 c6         1 6BT      -0.075100
      2 CAG         -2.0260     1.1470     0.4630 c3         1 6BT       0.160600
      3 CAI         -0.7870    -2.2450    -0.4440 c6         1 6BT       0.154800
      4 CAL          1.0860    -0.7370     0.1770 ca         1 6BT      -0.070300
      5 OAA         -3.3990     1.0140     0.1830 oh         1 6BT      -0.644000
      6 CAN         -1.2430     0.1340    -0.3670 c6         1 6BT       0.215800
      7 NAK         -1.7230    -1.2040    -0.0670 n7         1 6BT      -0.836400
      8 CAM          0.2550     0.3330    -0.1650 ca         1 6BT      -0.112300
      9 CAE          2.4530    -0.5140     0.3460 ca         1 6BT      -0.108000
     10 CAC          3.0050     0.7430     0.1680 ca         1 6BT      -0.106000
     11 CAD          2.1860     1.8010    -0.2090 ca         1 6BT      -0.112000
     12 CAF          0.8280     1.5870    -0.3810 ca         1 6BT      -0.106000
     13 H1           0.3510    -2.3620     1.3700 hc         1 6BT       0.052700
     14 H2           1.2550    -2.8580    -0.0440 hc         1 6BT       0.052700
     15 H3          -1.6730     2.1560     0.2310 h1         1 6BT       0.020200
     16 H4          -1.8060     0.9710     1.5270 h1         1 6BT       0.020200
     17 H5          -0.6060    -2.1760    -1.5210 h1         1 6BT       0.057700
     18 H6          -1.2470    -3.2190    -0.2630 h1         1 6BT       0.057700
     19 H7          -3.8640     1.7090     0.6570 ho         1 6BT       0.439000
     20 H8          -1.4540     0.3410    -1.4260 h1         1 6BT       0.082700
     21 H9          -1.9100    -1.2820     0.9270 hn         1 6BT       0.410000
     22 H11          3.0920    -1.3490     0.6070 ha         1 6BT       0.111000
     23 H12          4.0690     0.8940     0.3030 ha         1 6BT       0.113000
     24 H13          2.6030     2.7860    -0.3750 ha         1 6BT       0.113000
     25 H14          0.2070     2.4180    -0.6950 ha         1 6BT       0.110000
@<TRIPOS>BOND
     1     1     3 1   
     2     1     4 1   
     3     1    13 1   
     4     1    14 1   
     5     2     5 1   
     6     2     6 1   
     7     2    15 1   
     8     2    16 1   
     9     3     7 1   
    10     3    17 1   
    11     3    18 1   
    12     4     8 ar  
    13     4     9 ar  
    14     5    19 1   
    15     6     7 1   
    16     6     8 1   
    17     6    20 1   
    18     7    21 1   
    19     8    12 ar  
    20     9    10 ar  
    21     9    22 1   
    22    10    11 ar  
    23    10    23 1   
    24    11    12 ar  
    25    11    24 1   
    26    12    25 1   
@<TRIPOS>SUBSTRUCTURE
     1 6BT         1 TEMP              0 ****  ****    0 ROOT
