@<TRIPOS>MOLECULE
6BU
   48    52     1     0     0
SMALL
No Charge or Current Charge


@<TRIPOS>ATOM
      1 C8           0.3450     0.9620    -0.1300 cp         1 6BU       0.005000
      2 C5           3.1230     0.5860    -0.2740 ca         1 6BU      -0.258900
      3 C6           2.3090    -0.5530    -0.2330 ca         1 6BU      -0.032000
      4 N1           3.6670     2.7240    -0.2960 na         1 6BU      -0.062400
      5 C2           7.3170    -1.7440    -0.4790 cx         1 6BU      -0.251700
      6 N3          -4.1070    -0.4610     1.5060 nu         1 6BU      -0.862100
      7 C4           4.5470     0.7730    -0.3450 cc         1 6BU       0.429500
      8 O2           7.4730     0.6460    -0.4920 o          1 6BU      -0.550100
      9 C3           6.7540    -0.3420    -0.4510 c          1 6BU       0.638100
     10 C1           8.4750    -2.0890     0.4380 cx         1 6BU      -0.094400
     11 C            7.0990    -2.6450     0.7220 cx         1 6BU      -0.094400
     12 N            5.3850    -0.3140    -0.3870 ns         1 6BU      -0.402400
     13 N2           4.9030     2.0630    -0.3590 nd         1 6BU      -0.508100
     14 C10          2.6050     1.8420    -0.2470 ca         1 6BU      -0.016200
     15 C9           1.2280     2.0790    -0.1760 ca         1 6BU      -0.122000
     16 C7           0.9130    -0.3500    -0.1600 ca         1 6BU      -0.148000
     17 C11         -1.1380     1.1580    -0.0540 cp         1 6BU      -0.027000
     18 C16         -1.9580     0.2690     0.6880 ca         1 6BU      -0.124000
     19 C15         -3.3510     0.4390     0.7580 ca         1 6BU       0.231000
     20 C14         -3.9460     1.5300     0.0990 ca         1 6BU      -0.076000
     21 C13         -3.1580     2.4250    -0.6420 ca         1 6BU      -0.102000
     22 C12         -1.7680     2.2390    -0.7190 ca         1 6BU      -0.097000
     23 S           -5.4990    -1.2210     1.0200 s6         1 6BU       1.223100
     24 O           -5.5450    -2.4630     1.7920 o          1 6BU      -0.527000
     25 O1          -6.5750    -0.2320     1.1170 o          1 6BU      -0.527000
     26 C17         -5.2110    -1.6440    -0.7510 cx         1 6BU      -0.459700
     27 C19         -6.3750    -1.9900    -1.6570 cx         1 6BU      -0.059400
     28 C18         -5.6140    -0.6980    -1.8660 cx         1 6BU      -0.059400
     29 H1           2.7260    -1.5570    -0.2570 ha         1 6BU       0.113000
     30 H2           3.6040     3.7410    -0.2900 hn         1 6BU       0.383000
     31 H3           7.3130    -2.2160    -1.4580 hc         1 6BU       0.082700
     32 H4          -3.5920    -1.2070     1.9540 hn         1 6BU       0.486000
     33 H6           9.2310    -2.7750     0.0650 hc         1 6BU       0.083200
     34 H7           8.8540    -1.3160     1.1040 hc         1 6BU       0.083200
     35 H8           6.5650    -2.2450     1.5820 hc         1 6BU       0.083200
     36 H9           6.9350    -3.7050     0.5410 hc         1 6BU       0.083200
     37 H10          4.9530    -1.2250    -0.3680 hn         1 6BU       0.323500
     38 H12          0.8490     3.0970    -0.1420 ha         1 6BU       0.125000
     39 H13          0.2630    -1.2200    -0.1420 ha         1 6BU       0.113000
     40 H14         -1.5000    -0.5590     1.2200 ha         1 6BU       0.115000
     41 H15         -5.0170     1.6940     0.1650 ha         1 6BU       0.147000
     42 H16         -3.6240     3.2640    -1.1550 ha         1 6BU       0.124000
     43 H17         -1.1760     2.9350    -1.3090 ha         1 6BU       0.120000
     44 H18         -4.2880    -2.2120    -0.8360 h1         1 6BU       0.121700
     45 H19         -6.2350    -2.7830    -2.3900 hc         1 6BU       0.087450
     46 H20         -7.3850    -1.9190    -1.2570 hc         1 6BU       0.087450
     47 H21         -6.1240     0.2290    -1.6120 hc         1 6BU       0.087450
     48 H22         -4.9620    -0.6290    -2.7350 hc         1 6BU       0.087450
@<TRIPOS>BOND
     1     1    15 ar  
     2     1    16 ar  
     3     1    17 1   
     4     2     3 ar  
     5     2     7 1   
     6     2    14 ar  
     7     3    16 ar  
     8     3    29 1   
     9     4    13 1   
    10     4    14 1   
    11     4    30 1   
    12     5     9 1   
    13     5    10 1   
    14     5    11 1   
    15     5    31 1   
    16     6    19 1   
    17     6    23 1   
    18     6    32 1   
    19     7    12 1   
    20     7    13 2   
    21     8     9 2   
    22     9    12 1   
    23    10    11 1   
    24    10    33 1   
    25    10    34 1   
    26    11    35 1   
    27    11    36 1   
    28    12    37 1   
    29    14    15 ar  
    30    15    38 1   
    31    16    39 1   
    32    17    18 ar  
    33    17    22 ar  
    34    18    19 ar  
    35    18    40 1   
    36    19    20 ar  
    37    20    21 ar  
    38    20    41 1   
    39    21    22 ar  
    40    21    42 1   
    41    22    43 1   
    42    23    24 2   
    43    23    25 2   
    44    23    26 1   
    45    26    27 1   
    46    26    28 1   
    47    26    44 1   
    48    27    28 1   
    49    27    45 1   
    50    27    46 1   
    51    28    47 1   
    52    28    48 1   
@<TRIPOS>SUBSTRUCTURE
     1 6BU         1 TEMP              0 ****  ****    0 ROOT
