@<TRIPOS>MOLECULE
6BU
   48    52     1     0     0
SMALL
bcc


@<TRIPOS>ATOM
      1 C8          -0.0310     1.1290     0.0340 cp         1 6BU       0.005000
      2 C5           2.6590     0.4200    -0.0740 ca         1 6BU      -0.258900
      3 C6           1.6920    -0.5800    -0.2200 ca         1 6BU      -0.050000
      4 N1           3.4010     2.4670     0.2290 na         1 6BU      -0.012100
      5 C2           6.8250    -2.0310    -0.3270 cx         1 6BU      -0.251700
      6 N3          -4.6160     0.0350     1.4510 nu         1 6BU      -0.668500
      7 C4           4.0840     0.4810    -0.0610 cc         1 6BU       0.429500
      8 O2           6.9500     0.3030     0.1170 o          1 6BU      -0.550100
      9 C3           6.2620    -0.6720    -0.1200 c          1 6BU       0.705100
     10 C1           8.1650    -2.1410    -1.0090 cx         1 6BU      -0.094400
     11 C            8.0630    -2.4050     0.4470 cx         1 6BU      -0.094400
     12 N            4.9040    -0.6220    -0.2200 ns         1 6BU      -0.469400
     13 N2           4.5020     1.7070     0.1180 nd         1 6BU      -0.508100
     14 C10          2.2630     1.7530     0.1170 ca         1 6BU      -0.016200
     15 C9           0.9170     2.1250     0.1750 ca         1 6BU      -0.140000
     16 C7           0.3670    -0.2170    -0.1650 ca         1 6BU      -0.166000
     17 C11         -1.4690     1.4620     0.0900 cp         1 6BU      -0.027000
     18 C16         -2.3670     0.6080     0.7260 ca         1 6BU      -0.142000
     19 C15         -3.7200     0.9120     0.7840 ca         1 6BU       0.092600
     20 C14         -4.2000     2.0810     0.2050 ca         1 6BU      -0.094000
     21 C13         -3.3140     2.9270    -0.4430 ca         1 6BU      -0.120000
     22 C12         -1.9620     2.6250    -0.5030 ca         1 6BU      -0.115000
     23 S           -5.5960    -0.9500     0.5290 s6         1 6BU       1.253900
     24 O           -6.3070    -1.7870     1.4810 o          1 6BU      -0.597800
     25 O1          -6.3450    -0.0940    -0.3750 o          1 6BU      -0.597800
     26 C17         -4.5160    -1.9590    -0.4240 cx         1 6BU      -0.348900
     27 C19         -4.9950    -2.4700    -1.7500 cx         1 6BU      -0.059400
     28 C18         -3.9380    -1.4230    -1.6960 cx         1 6BU      -0.059400
     29 H1           1.9650    -1.6150    -0.3800 ha         1 6BU       0.131000
     30 H2           3.5010     3.4590     0.3650 hn         1 6BU       0.332700
     31 H3           6.1160    -2.8280    -0.5200 hc         1 6BU       0.082700
     32 H4          -4.2000    -0.4830     2.2190 hn         1 6BU       0.430800
     33 H6           8.2980    -2.9770    -1.6820 hc         1 6BU       0.083200
     34 H7           8.6320    -1.2190    -1.3290 hc         1 6BU       0.083200
     35 H8           8.4630    -1.6660     1.1290 hc         1 6BU       0.083200
     36 H9           8.1260    -3.4270     0.7960 hc         1 6BU       0.083200
     37 H10          4.4270    -1.4880    -0.4190 hn         1 6BU       0.323500
     38 H12          0.6310     3.1550     0.3500 ha         1 6BU       0.143000
     39 H13         -0.3910    -0.9770    -0.3000 ha         1 6BU       0.131000
     40 H14         -2.0110    -0.3000     1.1990 ha         1 6BU       0.133000
     41 H15         -5.2500     2.3300     0.2690 ha         1 6BU       0.165000
     42 H16         -3.6810     3.8340    -0.9050 ha         1 6BU       0.142000
     43 H17         -1.2890     3.2910    -1.0280 ha         1 6BU       0.138000
     44 H18         -3.9110    -2.6050     0.2020 h1         1 6BU       0.121700
     45 H19         -4.7150    -3.4860    -1.9910 hc         1 6BU       0.087450
     46 H20         -5.9810    -2.1800    -2.0880 hc         1 6BU       0.087450
     47 H21         -4.2040    -0.4190    -1.9990 hc         1 6BU       0.087450
     48 H22         -2.9130    -1.7000    -1.9030 hc         1 6BU       0.087450
@<TRIPOS>BOND
     1     1    15 ar  
     2     1    16 ar  
     3     1    17 1   
     4     2     3 ar  
     5     2     7 1   
     6     2    14 ar  
     7     3    16 ar  
     8     3    29 1   
     9     4    13 1   
    10     4    14 1   
    11     4    30 1   
    12     5     9 1   
    13     5    10 1   
    14     5    11 1   
    15     5    31 1   
    16     6    19 1   
    17     6    23 1   
    18     6    32 1   
    19     7    12 1   
    20     7    13 2   
    21     8     9 2   
    22     9    12 1   
    23    10    11 1   
    24    10    33 1   
    25    10    34 1   
    26    11    35 1   
    27    11    36 1   
    28    12    37 1   
    29    14    15 ar  
    30    15    38 1   
    31    16    39 1   
    32    17    18 ar  
    33    17    22 ar  
    34    18    19 ar  
    35    18    40 1   
    36    19    20 ar  
    37    20    21 ar  
    38    20    41 1   
    39    21    22 ar  
    40    21    42 1   
    41    22    43 1   
    42    23    24 2   
    43    23    25 2   
    44    23    26 1   
    45    26    27 1   
    46    26    28 1   
    47    26    44 1   
    48    27    28 1   
    49    27    45 1   
    50    27    46 1   
    51    28    47 1   
    52    28    48 1   
@<TRIPOS>SUBSTRUCTURE
     1 6BU         1 TEMP              0 ****  ****    0 ROOT
