@<TRIPOS>MOLECULE
6BV
   45    46     1     0     0
SMALL
bcc


@<TRIPOS>ATOM
      1 O41         26.0210    29.0030    34.4130 oh         1 6BV      -0.618800
      2 C41         26.6600    29.6170    35.4980 c6         1 6BV       0.137100
      3 C51         27.8440    30.4080    34.9310 c6         1 6BV       0.159100
      4 C61         27.4450    31.4710    33.9300 c3         1 6BV       0.154400
      5 O61         26.5400    32.3710    34.5220 oh         1 6BV      -0.583800
      6 O01         28.5510    31.0270    35.9840 os         1 6BV      -0.419600
      7 C11         29.1330    30.0980    36.8620 c6         1 6BV       0.311900
      8 O11         29.8530    30.7850    37.8170 oh         1 6BV      -0.581800
      9 C21         28.0440    29.2960    37.5770 c6         1 6BV       0.142100
     10 O21         28.6000    28.3160    38.4070 oh         1 6BV      -0.581800
     11 C31         27.1690    28.6080    36.5330 c6         1 6BV      -0.027600
     12 S12         25.7920    27.7740    37.4000 ss         1 6BV      -0.220200
     13 C12         25.5950    26.2640    36.4400 c6         1 6BV       0.213200
     14 O02         24.8630    26.5640    35.2720 os         1 6BV      -0.405600
     15 C52         24.7390    25.4680    34.3750 c6         1 6BV       0.147100
     16 C62         24.1250    25.9780    33.0900 c3         1 6BV       0.148400
     17 O62         22.8240    26.4480    33.3400 oh         1 6BV      -0.586800
     18 C42         23.9360    24.3660    35.0650 c6         1 6BV       0.110100
     19 O42         23.8550    23.2740    34.1840 oh         1 6BV      -0.597800
     20 C32         24.6330    23.9860    36.3690 c6         1 6BV       0.067100
     21 O32         23.8570    23.0400    37.0760 oh         1 6BV      -0.603800
     22 C22         24.8370    25.2170    37.2510 c6         1 6BV       0.129100
     23 O22         25.5840    24.9190    38.3980 oh         1 6BV      -0.575800
     24 H1          25.4590    28.2770    34.7240 ho         1 6BV       0.442000
     25 H2          25.9870    30.3160    36.0170 h1         1 6BV       0.079700
     26 H3          28.5000    29.7020    34.3960 h1         1 6BV       0.037700
     27 H4          27.0170    30.9710    33.0550 h1         1 6BV       0.031700
     28 H5          28.3580    31.9770    33.5900 h1         1 6BV       0.031700
     29 H6          26.2490    32.9880    33.8450 ho         1 6BV       0.403000
     30 H7          29.7730    29.4030    36.2920 h2         1 6BV       0.022700
     31 H8          30.7200    31.0160    37.4670 ho         1 6BV       0.422000
     32 H9          27.4280    30.0120    38.1460 h1         1 6BV       0.071700
     33 H10         29.1050    28.7590    39.0960 ho         1 6BV       0.422000
     34 H11         27.7610    27.8340    36.0290 h1         1 6BV       0.078700
     35 H12         26.5950    25.8860    36.1810 h2         1 6BV       0.064700
     36 H13         25.7380    25.0790    34.1240 h1         1 6BV       0.047700
     37 H14         24.1400    25.1590    32.3630 h1         1 6BV       0.037700
     38 H15         24.7740    26.7670    32.6880 h1         1 6BV       0.037700
     39 H16         22.4210    26.6770    32.4990 ho         1 6BV       0.407000
     40 H17         22.9370    24.7580    35.3040 h1         1 6BV       0.079700
     41 H18         23.3150    22.5950    34.6010 ho         1 6BV       0.417000
     42 H19         25.6200    23.5680    36.1260 h1         1 6BV       0.050700
     43 H20         24.3370    22.2090    37.1180 ho         1 6BV       0.413000
     44 H21         23.8490    25.6310    37.5090 h1         1 6BV       0.071700
     45 H22         25.1230    24.2200    38.8750 ho         1 6BV       0.417000
@<TRIPOS>BOND
     1     1     2 1   
     2     1    24 1   
     3     2     3 1   
     4     2    11 1   
     5     2    25 1   
     6     3     4 1   
     7     3     6 1   
     8     3    26 1   
     9     4     5 1   
    10     4    27 1   
    11     4    28 1   
    12     5    29 1   
    13     6     7 1   
    14     7     8 1   
    15     7     9 1   
    16     7    30 1   
    17     8    31 1   
    18     9    10 1   
    19     9    11 1   
    20     9    32 1   
    21    10    33 1   
    22    11    12 1   
    23    11    34 1   
    24    12    13 1   
    25    13    14 1   
    26    13    22 1   
    27    13    35 1   
    28    14    15 1   
    29    15    16 1   
    30    15    18 1   
    31    15    36 1   
    32    16    17 1   
    33    16    37 1   
    34    16    38 1   
    35    17    39 1   
    36    18    19 1   
    37    18    20 1   
    38    18    40 1   
    39    19    41 1   
    40    20    21 1   
    41    20    22 1   
    42    20    42 1   
    43    21    43 1   
    44    22    23 1   
    45    22    44 1   
    46    23    45 1   
@<TRIPOS>SUBSTRUCTURE
     1 6BV         1 TEMP              0 ****  ****    0 ROOT
