@<TRIPOS>MOLECULE
6BV
   45    46     1     0     0
SMALL
No Charge or Current Charge


@<TRIPOS>ATOM
      1 O41         25.4850    29.0680    34.7840 oh         1 6BV      -0.741000
      2 C41         26.4570    29.6750    35.6610 c6         1 6BV       0.160300
      3 C51         27.5600    30.4270    34.8410 c6         1 6BV       0.182300
      4 C61         26.9850    31.6230    34.0060 c3         1 6BV       0.177600
      5 O61         26.4780    32.7090    34.8120 oh         1 6BV      -0.706000
      6 O01         28.5850    30.9490    35.7250 os         1 6BV      -0.466000
      7 C11         29.2620    29.9380    36.4680 c6         1 6BV       0.358300
      8 O11         30.2610    30.6170    37.2050 oh         1 6BV      -0.644000
      9 C21         28.2610    29.2030    37.4220 c6         1 6BV       0.165300
     10 O21         28.9370    28.1820    38.1900 oh         1 6BV      -0.704000
     11 C31         27.0930    28.5940    36.5910 c6         1 6BV       0.020300
     12 S12         25.8080    27.7920    37.6760 ss         1 6BV      -0.316000
     13 C12         25.6400    26.1720    36.8070 c6         1 6BV       0.284300
     14 O02         25.2190    26.4690    35.4580 os         1 6BV      -0.452000
     15 C52         25.1290    25.3080    34.5890 c6         1 6BV       0.170300
     16 C62         24.7890    25.8150    33.1490 c3         1 6BV       0.171600
     17 O62         23.5400    26.5320    33.0740 oh         1 6BV      -0.709000
     18 C42         24.0670    24.3070    35.1550 c6         1 6BV       0.133300
     19 O42         23.9650    23.1040    34.3580 oh         1 6BV      -0.720000
     20 C32         24.4560    23.9300    36.6140 c6         1 6BV       0.090300
     21 O32         23.4810    23.0400    37.1860 oh         1 6BV      -0.666000
     22 C22         24.6090    25.2100    37.4840 c6         1 6BV       0.152300
     23 O22         24.9920    24.8240    38.8190 oh         1 6BV      -0.698000
     24 H1          25.3100    28.1500    35.1320 ho         1 6BV       0.541000
     25 H2          25.9600    30.4170    36.3050 h1         1 6BV       0.079700
     26 H3          28.0310    29.7220    34.1410 h1         1 6BV       0.037700
     27 H4          26.1950    31.2390    33.3470 h1         1 6BV       0.031700
     28 H5          27.7910    31.9890    33.3560 h1         1 6BV       0.031700
     29 H6          26.2060    33.4240    34.1900 ho         1 6BV       0.502000
     30 H7          29.7290    29.2210    35.7760 h2         1 6BV       0.022700
     31 H8          30.3530    31.4720    36.7320 ho         1 6BV       0.461000
     32 H9          27.8350    29.9580    38.1010 h1         1 6BV       0.071700
     33 H10         29.7570    28.6090    38.5350 ho         1 6BV       0.521000
     34 H11         27.5250    27.8080    35.9560 h1         1 6BV       0.078700
     35 H12         26.6350    25.7040    36.7970 h2         1 6BV       0.064700
     36 H13         26.1130    24.8180    34.5550 h1         1 6BV       0.047700
     37 H14         24.7750    24.9540    32.4680 h1         1 6BV       0.037700
     38 H15         25.6130    26.4640    32.8240 h1         1 6BV       0.037700
     39 H16         23.5080    26.9650    32.1890 ho         1 6BV       0.506000
     40 H17         23.0960    24.8250    35.1850 h1         1 6BV       0.079700
     41 H18         23.4040    23.3200    33.5750 ho         1 6BV       0.516000
     42 H19         25.4340    23.4260    36.5780 h1         1 6BV       0.050700
     43 H20         23.2610    22.4050    36.4640 ho         1 6BV       0.452000
     44 H21         23.6370    25.7280    37.5090 h1         1 6BV       0.071700
     45 H22         24.4810    23.9970    38.9900 ho         1 6BV       0.516000
@<TRIPOS>BOND
     1     1     2 1   
     2     1    24 1   
     3     2     3 1   
     4     2    11 1   
     5     2    25 1   
     6     3     4 1   
     7     3     6 1   
     8     3    26 1   
     9     4     5 1   
    10     4    27 1   
    11     4    28 1   
    12     5    29 1   
    13     6     7 1   
    14     7     8 1   
    15     7     9 1   
    16     7    30 1   
    17     8    31 1   
    18     9    10 1   
    19     9    11 1   
    20     9    32 1   
    21    10    33 1   
    22    11    12 1   
    23    11    34 1   
    24    12    13 1   
    25    13    14 1   
    26    13    22 1   
    27    13    35 1   
    28    14    15 1   
    29    15    16 1   
    30    15    18 1   
    31    15    36 1   
    32    16    17 1   
    33    16    37 1   
    34    16    38 1   
    35    17    39 1   
    36    18    19 1   
    37    18    20 1   
    38    18    40 1   
    39    19    41 1   
    40    20    21 1   
    41    20    22 1   
    42    20    42 1   
    43    21    43 1   
    44    22    23 1   
    45    22    44 1   
    46    23    45 1   
@<TRIPOS>SUBSTRUCTURE
     1 6BV         1 TEMP              0 ****  ****    0 ROOT
