@<TRIPOS>MOLECULE
6BX
   28    28     1     0     0
SMALL
No Charge or Current Charge


@<TRIPOS>ATOM
      1 O01          2.7340    -1.4360    -0.7650 o          1 6BX      -0.693200
      2 S02          2.7550    -0.0450    -1.2360 s6         1 6BX       1.325600
      3 C03          1.9110     0.8660     0.0680 c3         1 6BX      -0.397400
      4 C04          0.5430     0.2680     0.4350 c3         1 6BX       0.218300
      5 O05          0.0800     0.9410     1.6020 oh         1 6BX      -0.638000
      6 C06         -0.5750     0.4320    -0.6370 c3         1 6BX       0.130800
      7 N07         -1.9570     0.3460    -0.0790 n3         1 6BX      -0.700600
      8 C08         -2.9920     0.8020    -1.0580 c6         1 6BX       0.128300
      9 C09         -4.4290     0.7210    -0.4610 c6         1 6BX       0.152600
     10 O10         -4.7040    -0.6200     0.0080 os         1 6BX      -0.464000
     11 C11         -3.7580    -1.0630     1.0100 c6         1 6BX       0.152600
     12 C12         -2.3070    -1.0170     0.4440 c6         1 6BX       0.128300
     13 O13          4.0910     0.5680    -1.2640 o          1 6BX      -0.693200
     14 O14          1.9460     0.2110    -2.4350 o          1 6BX      -0.693200
     15 H1           2.5780     0.8290     0.9350 h1         1 6BX       0.068200
     16 H2           1.8120     1.9000    -0.2750 h1         1 6BX       0.068200
     17 H3           0.6550    -0.8040     0.6530 h1         1 6BX       0.080700
     18 H4          -0.8930     0.9880     1.4320 ho         1 6BX       0.440000
     19 H5          -0.4430     1.4150    -1.1120 h1         1 6BX       0.026200
     20 H6          -0.4410    -0.3250    -1.4210 h1         1 6BX       0.026200
     21 H8          -2.7960     1.8410    -1.3630 h1         1 6BX       0.039200
     22 H9          -2.9540     0.1860    -1.9680 h1         1 6BX       0.039200
     23 H10         -4.5290     1.4270     0.3760 h1         1 6BX       0.043950
     24 H11         -5.1690     0.9930    -1.2280 h1         1 6BX       0.043950
     25 H12         -3.8370    -0.4150     1.8950 h1         1 6BX       0.043950
     26 H13         -4.0090    -2.0890     1.3130 h1         1 6BX       0.043950
     27 H14         -2.2190    -1.7650    -0.3580 h1         1 6BX       0.039200
     28 H15         -1.6130    -1.3180     1.2420 h1         1 6BX       0.039200
@<TRIPOS>BOND
     1     1     2 1   
     2     2     3 1   
     3     2    13 1   
     4     2    14 1   
     5     3     4 1   
     6     3    15 1   
     7     3    16 1   
     8     4     5 1   
     9     4     6 1   
    10     4    17 1   
    11     5    18 1   
    12     6     7 1   
    13     6    19 1   
    14     6    20 1   
    15     7     8 1   
    16     7    12 1   
    17     8     9 1   
    18     8    21 1   
    19     8    22 1   
    20     9    10 1   
    21     9    23 1   
    22     9    24 1   
    23    10    11 1   
    24    11    12 1   
    25    11    25 1   
    26    11    26 1   
    27    12    27 1   
    28    12    28 1   
@<TRIPOS>SUBSTRUCTURE
     1 6BX         1 TEMP              0 ****  ****    0 ROOT
