@<TRIPOS>MOLECULE
6BX
   28    28     1     0     0
SMALL
abcg2


@<TRIPOS>ATOM
      1 O01          3.4340     0.6980     1.1530 o          1 6BX      -0.693200
      2 S02          3.1840    -0.0100    -0.1170 s6         1 6BX       1.325600
      3 C03          1.6150     0.6100    -0.7590 c3         1 6BX      -0.397400
      4 C04          0.3820     0.1310    -0.0030 c3         1 6BX       0.218300
      5 O05          0.4320     0.4020     1.3740 oh         1 6BX      -0.638000
      6 C06         -0.8590     0.7330    -0.6630 c3         1 6BX       0.130800
      7 N07         -2.1040     0.3260    -0.0500 n3         1 6BX      -0.700600
      8 C08         -3.2090     1.1390    -0.5240 c6         1 6BX       0.128300
      9 C09         -4.4970     0.7330     0.1680 c6         1 6BX       0.152600
     10 O10         -4.7830    -0.6340    -0.0330 os         1 6BX      -0.464000
     11 C11         -3.7160    -1.4360     0.4220 c6         1 6BX       0.152600
     12 C12         -2.4090    -1.0780    -0.2610 c6         1 6BX       0.128300
     13 O13          4.1710     0.3360    -1.1620 o          1 6BX      -0.693200
     14 O14          3.0030    -1.4660     0.0490 o          1 6BX      -0.693200
     15 H1           1.6790     1.7030    -0.7610 h1         1 6BX       0.068200
     16 H2           1.5480     0.2880    -1.8000 h1         1 6BX       0.068200
     17 H3           0.3460    -0.9590    -0.0860 h1         1 6BX       0.080700
     18 H4           0.6570     1.3300     1.5000 ho         1 6BX       0.440000
     19 H5          -0.7920     1.8250    -0.5930 h1         1 6BX       0.026200
     20 H6          -0.8340     0.4930    -1.7410 h1         1 6BX       0.026200
     21 H8          -3.0090     2.1900    -0.3030 h1         1 6BX       0.039200
     22 H9          -3.3400     1.0560    -1.6170 h1         1 6BX       0.039200
     23 H10         -4.4170     0.9540     1.2420 h1         1 6BX       0.043950
     24 H11         -5.3350     1.3060    -0.2330 h1         1 6BX       0.043950
     25 H12         -3.5950    -1.3300     1.5100 h1         1 6BX       0.043950
     26 H13         -3.9740    -2.4750     0.2130 h1         1 6BX       0.043950
     27 H14         -2.4740    -1.3230    -1.3360 h1         1 6BX       0.039200
     28 H15         -1.6240    -1.7060     0.1640 h1         1 6BX       0.039200
@<TRIPOS>BOND
     1     1     2 1   
     2     2     3 1   
     3     2    13 1   
     4     2    14 1   
     5     3     4 1   
     6     3    15 1   
     7     3    16 1   
     8     4     5 1   
     9     4     6 1   
    10     4    17 1   
    11     5    18 1   
    12     6     7 1   
    13     6    19 1   
    14     6    20 1   
    15     7     8 1   
    16     7    12 1   
    17     8     9 1   
    18     8    21 1   
    19     8    22 1   
    20     9    10 1   
    21     9    23 1   
    22     9    24 1   
    23    10    11 1   
    24    11    12 1   
    25    11    25 1   
    26    11    26 1   
    27    12    27 1   
    28    12    28 1   
@<TRIPOS>SUBSTRUCTURE
     1 6BX         1 TEMP              0 ****  ****    0 ROOT
