@<TRIPOS>MOLECULE
6BY
   28    28     1     0     0
SMALL
abcg2


@<TRIPOS>ATOM
      1 O01         -4.1610     0.2720    -1.1490 o          1 6BY      -0.692867
      2 S02         -3.1680    -0.0680    -0.1090 s6         1 6BY       1.327600
      3 C03         -1.6070     0.5700    -0.7510 c3         1 6BY      -0.398400
      4 C04         -0.3670     0.0970    -0.0020 c3         1 6BY       0.218300
      5 O05         -0.4260     0.3390     1.3810 oh         1 6BY      -0.638000
      6 C06          0.8640     0.7350    -0.6450 c3         1 6BY       0.130800
      7 N07          2.1160     0.3140    -0.0550 n3         1 6BY      -0.700600
      8 C08          2.4450    -1.0680    -0.3530 c6         1 6BY       0.128800
      9 C09          3.7540    -1.4490     0.3140 c6         1 6BY       0.152600
     10 O10          4.8090    -0.6030    -0.0850 os         1 6BY      -0.464000
     11 C11          4.5000     0.7440     0.1980 c6         1 6BY       0.152600
     12 C12          3.2090     1.1720    -0.4730 c6         1 6BY       0.128800
     13 O13         -3.4210     0.6330     1.1640 o          1 6BY      -0.692867
     14 O14         -2.9720    -1.5230     0.0520 o          1 6BY      -0.692867
     15 H1          -1.5390     0.2560    -1.7940 h1         1 6BY       0.068200
     16 H2          -1.6810     1.6620    -0.7460 h1         1 6BY       0.068200
     17 H3          -0.3110    -0.9900    -0.1070 h1         1 6BY       0.080700
     18 H4          -0.6710     1.2590     1.5240 ho         1 6BY       0.440000
     19 H5           0.8370     0.5380    -1.7310 h1         1 6BY       0.026200
     20 H6           0.7880     1.8230    -0.5320 h1         1 6BY       0.026200
     21 H8           1.6660    -1.7340     0.0240 h1         1 6BY       0.038700
     22 H9           2.5200    -1.2410    -1.4410 h1         1 6BY       0.038700
     23 H10          3.6260    -1.4140     1.4050 h1         1 6BY       0.043950
     24 H11          4.0300    -2.4680     0.0400 h1         1 6BY       0.043950
     25 H12          4.4120     0.8980     1.2830 h1         1 6BY       0.043950
     26 H13          5.3310     1.3540    -0.1630 h1         1 6BY       0.043950
     27 H14          3.3450     1.1570    -1.5690 h1         1 6BY       0.038700
     28 H15          2.9910     2.2050    -0.1910 h1         1 6BY       0.038700
@<TRIPOS>BOND
     1     1     2 1   
     2     2     3 1   
     3     2    13 1   
     4     2    14 1   
     5     3     4 1   
     6     3    15 1   
     7     3    16 1   
     8     4     5 1   
     9     4     6 1   
    10     4    17 1   
    11     5    18 1   
    12     6     7 1   
    13     6    19 1   
    14     6    20 1   
    15     7     8 1   
    16     7    12 1   
    17     8     9 1   
    18     8    21 1   
    19     8    22 1   
    20     9    10 1   
    21     9    23 1   
    22     9    24 1   
    23    10    11 1   
    24    11    12 1   
    25    11    25 1   
    26    11    26 1   
    27    12    27 1   
    28    12    28 1   
@<TRIPOS>SUBSTRUCTURE
     1 6BY         1 TEMP              0 ****  ****    0 ROOT
