@<TRIPOS>MOLECULE
6BY
   28    28     1     0     0
SMALL
No Charge or Current Charge


@<TRIPOS>ATOM
      1 O01         -4.0820     0.5460    -1.2520 o          1 6BY      -0.692867
      2 S02         -2.7410    -0.0550    -1.2470 s6         1 6BY       1.327600
      3 C03         -1.9030     0.8160     0.0880 c3         1 6BY      -0.398400
      4 C04         -0.5290     0.2180     0.4310 c3         1 6BY       0.218300
      5 O05         -0.0700     0.8530     1.6220 oh         1 6BY      -0.638000
      6 C06          0.5860     0.4320    -0.6350 c3         1 6BY       0.130800
      7 N07          1.9700     0.3380    -0.0820 n3         1 6BY      -0.700600
      8 C08          2.3320    -1.0390     0.3910 c6         1 6BY       0.128800
      9 C09          3.7850    -1.0930     0.9540 c6         1 6BY       0.152600
     10 O10          4.7260    -0.6040    -0.0320 os         1 6BY      -0.464000
     11 C11          4.4380     0.7510    -0.4530 c6         1 6BY       0.152600
     12 C12          2.9990     0.8400    -1.0450 c6         1 6BY       0.128800
     13 O13         -2.7060    -1.4620    -0.8270 o          1 6BY      -0.692867
     14 O14         -1.9360     0.2520    -2.4370 o          1 6BY      -0.692867
     15 H1          -1.8150     1.8630    -0.2180 h1         1 6BY       0.068200
     16 H2          -2.5690     0.7410     0.9530 h1         1 6BY       0.068200
     17 H3          -0.6310    -0.8620     0.6110 h1         1 6BY       0.080700
     18 H4           0.9010     0.9150     1.4530 ho         1 6BY       0.440000
     19 H5           0.4580    -0.2970    -1.4460 h1         1 6BY       0.026200
     20 H6           0.4440     1.4290    -1.0730 h1         1 6BY       0.026200
     21 H8           1.6430    -1.3760     1.1780 h1         1 6BY       0.038700
     22 H9           2.2500    -1.7580    -0.4370 h1         1 6BY       0.038700
     23 H10          3.8590    -0.4770     1.8610 h1         1 6BY       0.043950
     24 H11          4.0460    -2.1270     1.2190 h1         1 6BY       0.043950
     25 H12          4.5310     1.4260     0.4100 h1         1 6BY       0.043950
     26 H13          5.1740     1.0570    -1.2090 h1         1 6BY       0.043950
     27 H14          2.9650     0.2570    -1.9770 h1         1 6BY       0.038700
     28 H15          2.7930     1.8860    -1.3120 h1         1 6BY       0.038700
@<TRIPOS>BOND
     1     1     2 1   
     2     2     3 1   
     3     2    13 1   
     4     2    14 1   
     5     3     4 1   
     6     3    15 1   
     7     3    16 1   
     8     4     5 1   
     9     4     6 1   
    10     4    17 1   
    11     5    18 1   
    12     6     7 1   
    13     6    19 1   
    14     6    20 1   
    15     7     8 1   
    16     7    12 1   
    17     8     9 1   
    18     8    21 1   
    19     8    22 1   
    20     9    10 1   
    21     9    23 1   
    22     9    24 1   
    23    10    11 1   
    24    11    12 1   
    25    11    25 1   
    26    11    26 1   
    27    12    27 1   
    28    12    28 1   
@<TRIPOS>SUBSTRUCTURE
     1 6BY         1 TEMP              0 ****  ****    0 ROOT
