@<TRIPOS>MOLECULE
6BZ
   54    57     1     0     0
SMALL
No Charge or Current Charge


@<TRIPOS>ATOM
      1 C14          2.8880    -0.2750    -1.0050 ca         1 6BZ      -0.102000
      2 C6           5.6690     0.6080    -1.3780 cc         1 6BZ      -0.078400
      3 C11          1.5970     0.9140     1.1790 ca         1 6BZ      -0.085000
      4 C7           7.0300     0.6170    -1.6470 cd         1 6BZ      -0.091400
      5 C9           3.6710     0.2960     0.0240 ca         1 6BZ       0.028600
      6 C10          2.9990     0.9290     1.0940 ca         1 6BZ      -0.085000
      7 C12          0.8290     0.2920     0.1800 ca         1 6BZ      -0.011800
      8 C13          1.4850    -0.2960    -0.9200 ca         1 6BZ       0.149000
      9 C3           5.9810     0.2000     0.9800 c          1 6BZ       0.422700
     10 C2           7.4330     0.2530     0.6090 cc         1 6BZ       0.358300
     11 O4           5.5710    -0.0370     2.1150 o          1 6BZ      -0.519000
     12 N5           5.1110     0.4160    -0.1110 n          1 6BZ      -0.192200
     13 N8           7.9530     0.4420    -0.6120 nd         1 6BZ      -0.517300
     14 Cl1          0.5660    -1.0420    -2.2290 cl         1 6BZ      -0.178000
     15 C16         -0.6290     0.2820     0.2880 cc         1 6BZ      -0.171400
     16 C17         -1.2440     1.4940     0.0750 cd         1 6BZ      -0.026200
     17 C18         -2.6950     1.5890     0.1460 ca         1 6BZ      -0.310800
     18 C19         -3.3780     2.7990    -0.0650 ca         1 6BZ       0.207900
     19 N20         -4.7190     2.8660     0.0020 nb         1 6BZ      -0.259000
     20 C21         -5.3570     1.7160     0.2800 ca         1 6BZ       0.427900
     21 N22         -4.8030     0.5160     0.4960 nb         1 6BZ      -0.318000
     22 C23         -3.4570     0.4480     0.4290 ca         1 6BZ       0.318900
     23 N24         -2.8070    -0.8160     0.6520 n          1 6BZ      -0.362300
     24 C25         -1.3970    -0.9530     0.5970 c          1 6BZ       0.578200
     25 O26         -0.8410    -2.0260     0.7930 o          1 6BZ      -0.515000
     26 C27         -3.6240    -2.0240     0.9580 c3         1 6BZ       0.095000
     27 C28         -4.1630    -2.7210    -0.3090 c3         1 6BZ      -0.096400
     28 C29         -5.0080    -3.9660     0.0160 c3         1 6BZ       0.153800
     29 N30         -5.4990    -4.6200    -1.2100 n8         1 6BZ      -0.993200
     30 N31         -6.7390     1.7430     0.3580 nu         1 6BZ      -0.911100
     31 C32         -7.6260     2.9070     0.1680 c3         1 6BZ       0.229100
     32 H1           3.3590    -0.7450    -1.8630 ha         1 6BZ       0.140000
     33 H2           4.9230     0.7890    -2.1440 h4         1 6BZ       0.212000
     34 H3           1.1040     1.3930     2.0220 ha         1 6BZ       0.125000
     35 H4           7.4220     0.7780    -2.6510 h4         1 6BZ       0.224000
     36 H5           3.5600     1.4540     1.8630 ha         1 6BZ       0.134000
     37 H6           8.2410    -0.9470     2.2100 hc         1 6BZ       0.059700
     38 H7           9.4310     0.1150     1.4400 hc         1 6BZ       0.059700
     39 H8           8.2250     0.7970     2.5410 hc         1 6BZ       0.059700
     40 H9          -0.6470     2.3750    -0.1540 ha         1 6BZ       0.190000
     41 H10         -2.8480     3.7230    -0.2910 h4         1 6BZ       0.024100
     42 H11         -3.0310    -2.7440     1.5370 h1         1 6BZ       0.071700
     43 H12         -4.4660    -1.7440     1.6040 h1         1 6BZ       0.071700
     44 H13         -4.7680    -2.0100    -0.8850 hc         1 6BZ       0.059700
     45 H14         -3.3160    -3.0120    -0.9430 hc         1 6BZ       0.059700
     46 H15         -4.4010    -4.6890     0.5800 h1         1 6BZ       0.027700
     47 H16         -5.8710    -3.6790     0.6340 h1         1 6BZ       0.027700
     48 H17         -6.1020    -5.4100    -0.9500 hn         1 6BZ       0.391500
     49 H18         -6.1390    -3.9800    -1.6960 hn         1 6BZ       0.391500
     50 H20         -7.1760     0.8440     0.5720 hn         1 6BZ       0.511000
     51 H21         -7.3950     3.6910     0.9030 h1         1 6BZ       0.046033
     52 H22         -7.5010     3.3270    -0.8390 h1         1 6BZ       0.046033
     53 H23         -8.6770     2.6160     0.2930 h1         1 6BZ       0.046033
     54 C1           8.3850     0.0430     1.7620 c3         1 6BZ      -0.119400
@<TRIPOS>BOND
     1     1     5 ar  
     2     1     8 ar  
     3     1    32 1   
     4     2     4 2   
     5     2    12 1   
     6     2    33 1   
     7     3     6 ar  
     8     3     7 ar  
     9     3    34 1   
    10     4    13 1   
    11     4    35 1   
    12     5     6 ar  
    13     5    12 1   
    14     6    36 1   
    15     7     8 ar  
    16     7    15 1   
    17     8    14 1   
    18     9    10 1   
    19     9    11 2   
    20     9    12 1   
    21    10    13 2   
    22    10    54 1   
    23    15    16 2   
    24    15    24 1   
    25    16    17 1   
    26    16    40 1   
    27    17    18 ar  
    28    17    22 ar  
    29    18    19 ar  
    30    18    41 1   
    31    19    20 ar  
    32    20    21 ar  
    33    20    30 1   
    34    21    22 ar  
    35    22    23 1   
    36    23    24 1   
    37    23    26 1   
    38    24    25 2   
    39    26    27 1   
    40    26    42 1   
    41    26    43 1   
    42    27    28 1   
    43    27    44 1   
    44    27    45 1   
    45    28    29 1   
    46    28    46 1   
    47    28    47 1   
    48    29    48 1   
    49    29    49 1   
    50    30    31 1   
    51    30    50 1   
    52    31    51 1   
    53    31    52 1   
    54    31    53 1   
    55    37    54 1   
    56    38    54 1   
    57    39    54 1   
@<TRIPOS>SUBSTRUCTURE
     1 6BZ         1 TEMP              0 ****  ****    0 ROOT
