@<TRIPOS>MOLECULE
6BZ
   54    57     1     0     0
SMALL
abcg2


@<TRIPOS>ATOM
      1 C14          2.8330    -0.2840    -0.9480 ca         1 6BZ      -0.102000
      2 C6           5.5860     1.0420    -1.2460 cc         1 6BZ      -0.078400
      3 C11          1.5840     1.2150     1.0170 ca         1 6BZ      -0.085000
      4 C7           6.9290     1.0300    -1.3740 cd         1 6BZ      -0.091400
      5 C9           3.5810     0.4540    -0.0450 ca         1 6BZ       0.028600
      6 C10          2.9660     1.2090     0.9400 ca         1 6BZ      -0.085000
      7 C12          0.7980     0.4870     0.1260 ca         1 6BZ      -0.011800
      8 C13          1.4510    -0.2530    -0.8570 ca         1 6BZ       0.149000
      9 C3           5.7500    -0.1800     0.8150 c          1 6BZ       0.422700
     10 C2           7.1990    -0.1340     0.5830 cc         1 6BZ       0.358300
     11 O4           5.2310    -0.7260     1.7750 o          1 6BZ      -0.519000
     12 N5           5.0030     0.4480    -0.1620 n          1 6BZ      -0.192200
     13 N8           7.7290     0.4370    -0.4470 nd         1 6BZ      -0.517300
     14 CL1          0.5310    -1.1250    -2.0300 cl         1 6BZ      -0.178000
     15 C16         -0.6720     0.5440     0.2160 cc         1 6BZ      -0.171400
     16 C17         -1.3560     1.6850    -0.0150 cd         1 6BZ      -0.026200
     17 C18         -2.7680     1.7060     0.0790 ca         1 6BZ      -0.310800
     18 C19         -3.5680     2.8210    -0.1690 ca         1 6BZ       0.207900
     19 N20         -4.8780     2.8060    -0.0960 nb         1 6BZ      -0.259000
     20 C21         -5.4380     1.6250     0.2350 ca         1 6BZ       0.427900
     21 N22         -4.7790     0.4910     0.4920 nb         1 6BZ      -0.318000
     22 C23         -3.4620     0.5300     0.4210 ca         1 6BZ       0.318900
     23 N24         -2.7570    -0.6110     0.6930 n          1 6BZ      -0.362300
     24 C25         -1.3690    -0.6770     0.6040 c          1 6BZ       0.578200
     25 O26         -0.7810    -1.7160     0.8550 o          1 6BZ      -0.515000
     26 C27         -3.4820    -1.8330     1.0420 c3         1 6BZ       0.095000
     27 C28         -3.8510    -2.6510    -0.1870 c3         1 6BZ      -0.096400
     28 C29         -4.6620    -3.8820     0.1890 c3         1 6BZ       0.153800
     29 N30         -4.9790    -4.6670    -0.9950 n8         1 6BZ      -0.993200
     30 N31         -6.7690     1.5820     0.3110 nu         1 6BZ      -0.911100
     31 C32         -7.6310     2.7120     0.0670 c3         1 6BZ       0.229100
     32 H1           3.3210    -0.8680    -1.7180 ha         1 6BZ       0.140000
     33 H2           4.9270     1.5120    -1.9610 h4         1 6BZ       0.212000
     34 H3           1.0960     1.7950     1.7890 ha         1 6BZ       0.125000
     35 H4           7.4060     1.4990    -2.2220 h4         1 6BZ       0.224000
     36 H5           3.5550     1.7890     1.6360 ha         1 6BZ       0.134000
     37 H6           7.8380    -1.8620     1.6730 hc         1 6BZ       0.059700
     38 H7           9.1100    -0.6730     1.3470 hc         1 6BZ       0.059700
     39 H8           7.8900    -0.3750     2.5970 hc         1 6BZ       0.059700
     40 H9          -0.8340     2.5930    -0.2990 ha         1 6BZ       0.190000
     41 H10         -3.1000     3.7630    -0.4390 h4         1 6BZ       0.024100
     42 H11         -2.8560    -2.4140     1.7160 h1         1 6BZ       0.071700
     43 H12         -4.3750    -1.5420     1.5890 h1         1 6BZ       0.071700
     44 H13         -4.4300    -2.0280    -0.8750 hc         1 6BZ       0.059700
     45 H14         -2.9460    -2.9620    -0.7160 hc         1 6BZ       0.059700
     46 H15         -4.0730    -4.5080     0.8650 h1         1 6BZ       0.027700
     47 H16         -5.5480    -3.5640     0.7570 h1         1 6BZ       0.027700
     48 H17         -5.5080    -5.4860    -0.7240 hn         1 6BZ       0.391500
     49 H18         -5.5950    -4.1320    -1.5950 hn         1 6BZ       0.391500
     50 H20         -7.1830     0.7010     0.5670 hn         1 6BZ       0.511000
     51 H21         -7.4540     3.5200     0.7780 h1         1 6BZ       0.046033
     52 H22         -7.5040     3.1100    -0.9390 h1         1 6BZ       0.046033
     53 H23         -8.6590     2.3780     0.1770 h1         1 6BZ       0.046033
     54 C1           8.0600    -0.7950     1.6050 c3         1 6BZ      -0.119400
@<TRIPOS>BOND
     1     1     5 ar  
     2     1     8 ar  
     3     1    32 1   
     4     2     4 2   
     5     2    12 1   
     6     2    33 1   
     7     3     6 ar  
     8     3     7 ar  
     9     3    34 1   
    10     4    13 1   
    11     4    35 1   
    12     5     6 ar  
    13     5    12 1   
    14     6    36 1   
    15     7     8 ar  
    16     7    15 1   
    17     8    14 1   
    18     9    10 1   
    19     9    11 2   
    20     9    12 1   
    21    10    13 2   
    22    10    54 1   
    23    15    16 2   
    24    15    24 1   
    25    16    17 1   
    26    16    40 1   
    27    17    18 ar  
    28    17    22 ar  
    29    18    19 ar  
    30    18    41 1   
    31    19    20 ar  
    32    20    21 ar  
    33    20    30 1   
    34    21    22 ar  
    35    22    23 1   
    36    23    24 1   
    37    23    26 1   
    38    24    25 2   
    39    26    27 1   
    40    26    42 1   
    41    26    43 1   
    42    27    28 1   
    43    27    44 1   
    44    27    45 1   
    45    28    29 1   
    46    28    46 1   
    47    28    47 1   
    48    29    48 1   
    49    29    49 1   
    50    30    31 1   
    51    30    50 1   
    52    31    51 1   
    53    31    52 1   
    54    31    53 1   
    55    37    54 1   
    56    38    54 1   
    57    39    54 1   
@<TRIPOS>SUBSTRUCTURE
     1 6BZ         1 TEMP              0 ****  ****    0 ROOT
