@<TRIPOS>MOLECULE
6C0
   43    45     1     0     0
SMALL
abcg2


@<TRIPOS>ATOM
      1 CAA         58.2980  -116.2600   100.3230 c3         1 6C0       0.154900
      2 OAP         57.2020  -116.9940   100.9060 os         1 6C0      -0.418100
      3 CAR         56.3890  -117.6370   100.0780 c          1 6C0       0.625700
      4 OAB         56.5500  -117.5710    98.8570 o          1 6C0      -0.545000
      5 CAZ         55.2770  -118.3760   100.7020 ca         1 6C0      -0.288600
      6 CAT         54.2270  -118.7870    99.8340 ca         1 6C0       0.254100
      7 OAD         54.2650  -118.5880    98.5060 oh         1 6C0      -0.547100
      8 CAK         53.0900  -119.4090   100.3300 ca         1 6C0      -0.219000
      9 CAS         52.9730  -119.6600   101.6830 ca         1 6C0       0.224100
     10 OAC         51.8510  -120.2620   102.1200 oh         1 6C0      -0.519100
     11 CAW         54.0230  -119.2970   102.5430 ca         1 6C0      -0.045000
     12 CL1         53.7960  -119.6740   104.2430 cl         1 6C0      -0.206000
     13 CAY         55.1770  -118.6720   102.0890 ca         1 6C0       0.080700
     14 CAM         56.2660  -118.3620   103.0870 c3         1 6C0      -0.034100
     15 CAL         56.0560  -116.9940   103.7540 c3         1 6C0      -0.090700
     16 CAX         57.1780  -116.6380   104.6750 cc         1 6C0       0.423800
     17 NAO         58.4470  -116.9660   104.5070 nd         1 6C0      -0.681000
     18 CAG         59.1350  -116.4050   105.5630 cd         1 6C0       0.237900
     19 CAJ         58.2720  -115.7300   106.3760 cc         1 6C0      -0.225000
     20 NBA         57.0260  -115.8760   105.8000 na         1 6C0      -0.183500
     21 CAN         55.7830  -115.3660   106.3790 c3         1 6C0       0.055300
     22 CAV         55.2200  -116.2660   107.4170 cc         1 6C0       0.096300
     23 OAQ         54.7470  -117.4870   106.9920 os         1 6C0      -0.232000
     24 CAU         54.3100  -118.1400   108.0970 cc         1 6C0       0.224000
     25 CL2         53.6730  -119.7030   107.8550 cl         1 6C0      -0.102000
     26 CAH         54.4770  -117.3900   109.2130 cd         1 6C0      -0.166000
     27 CAI         55.0740  -116.1670   108.7620 cd         1 6C0      -0.142000
     28 H1          58.8400  -115.8460   101.1670 h1         1 6C0       0.056367
     29 H2          58.9360  -116.9300    99.7480 h1         1 6C0       0.056367
     30 H3          57.9180  -115.4670    99.6810 h1         1 6C0       0.056367
     31 H4          55.1470  -118.1840    98.3020 ho         1 6C0       0.522000
     32 H5          52.2970  -119.7000    99.6540 ha         1 6C0       0.155000
     33 H6          51.8930  -120.3790   103.0830 ho         1 6C0       0.483000
     34 H7          56.2630  -119.1300   103.8590 hc         1 6C0       0.081200
     35 H8          57.2370  -118.3880   102.6110 hc         1 6C0       0.081200
     36 H9          55.9690  -116.2280   102.9800 hc         1 6C0       0.060200
     37 H10         55.1130  -117.0020   104.2990 hc         1 6C0       0.060200
     38 H11         60.2020  -116.5190   105.6700 h4         1 6C0       0.039100
     39 H12         58.4100  -115.1710   107.2860 h4         1 6C0       0.155000
     40 H13         55.9890  -114.4000   106.8360 h1         1 6C0       0.079200
     41 H14         55.0690  -115.2040   105.5730 h1         1 6C0       0.079200
     42 H15         54.2140  -117.6690   110.2190 ha         1 6C0       0.157000
     43 H16         55.3610  -115.3240   109.3690 ha         1 6C0       0.146000
@<TRIPOS>BOND
     1     1     2 1   
     2     1    28 1   
     3     1    29 1   
     4     1    30 1   
     5     2     3 1   
     6     3     4 2   
     7     3     5 1   
     8     5     6 ar  
     9     5    13 ar  
    10     6     7 1   
    11     6     8 ar  
    12     7    31 1   
    13     8     9 ar  
    14     8    32 1   
    15     9    10 1   
    16     9    11 ar  
    17    10    33 1   
    18    11    12 1   
    19    11    13 ar  
    20    13    14 1   
    21    14    15 1   
    22    14    34 1   
    23    14    35 1   
    24    15    16 1   
    25    15    36 1   
    26    15    37 1   
    27    16    17 2   
    28    16    20 1   
    29    17    18 1   
    30    18    19 2   
    31    18    38 1   
    32    19    20 1   
    33    19    39 1   
    34    20    21 1   
    35    21    22 1   
    36    21    40 1   
    37    21    41 1   
    38    22    23 1   
    39    22    27 2   
    40    23    24 1   
    41    24    25 1   
    42    24    26 2   
    43    26    27 1   
    44    26    42 1   
    45    27    43 1   
@<TRIPOS>SUBSTRUCTURE
     1 6C0         1 TEMP              0 ****  ****    0 ROOT
