@<TRIPOS>MOLECULE
6C0
   43    45     1     0     0
SMALL
No Charge or Current Charge


@<TRIPOS>ATOM
      1 CAA         57.8830  -115.9060   100.0260 c3         1 6C0       0.154900
      2 OAP         56.8530  -116.6510   100.7010 os         1 6C0      -0.418100
      3 CAR         56.4430  -117.8320   100.1490 c          1 6C0       0.625700
      4 OAB         56.7910  -118.2120    99.0380 o          1 6C0      -0.545000
      5 CAZ         55.3020  -118.4810   100.8830 ca         1 6C0      -0.288600
      6 CAT         54.2060  -118.9530   100.1300 ca         1 6C0       0.254100
      7 OAD         54.1960  -118.8610    98.7720 oh         1 6C0      -0.547100
      8 CAK         53.1000  -119.5280   100.7560 ca         1 6C0      -0.219000
      9 CAS         53.0730  -119.6670   102.1410 ca         1 6C0       0.224100
     10 OAC         51.9850  -120.2400   102.7300 oh         1 6C0      -0.519100
     11 CAW         54.1640  -119.2390   102.9190 ca         1 6C0      -0.045000
     12 Cl1         54.0890  -119.4840   104.6750 cl         1 6C0      -0.206000
     13 CAY         55.2950  -118.6410   102.3020 ca         1 6C0       0.080700
     14 CAM         56.4940  -118.2370   103.1750 c3         1 6C0      -0.034100
     15 CAL         56.3000  -116.8670   103.8760 c3         1 6C0      -0.090700
     16 CAX         57.4150  -116.4960   104.8270 cc         1 6C0       0.423800
     17 NAO         58.6950  -116.7780   104.6300 nd         1 6C0      -0.681000
     18 CAG         59.3700  -116.2610   105.7140 cd         1 6C0       0.237900
     19 CAJ         58.4990  -115.6500   106.5770 cc         1 6C0      -0.225000
     20 NBA         57.2510  -115.7910   106.0080 na         1 6C0      -0.183500
     21 CAN         55.9880  -115.2810   106.5710 c3         1 6C0       0.055300
     22 CAV         55.1140  -116.3630   107.1430 cc         1 6C0       0.096300
     23 OAQ         53.7750  -116.3880   106.8170 os         1 6C0      -0.232000
     24 CAU         53.2560  -117.4830   107.4620 cc         1 6C0       0.224000
     25 Cl2         51.5690  -117.8270   107.2510 cl         1 6C0      -0.102000
     26 CAH         54.2160  -118.1370   108.1780 cd         1 6C0      -0.166000
     27 CAI         55.4120  -117.4160   107.9720 cd         1 6C0      -0.142000
     28 H1          58.1220  -114.9930   100.5860 h1         1 6C0       0.056367
     29 H2          58.8010  -116.5000    99.9370 h1         1 6C0       0.056367
     30 H3          57.5590  -115.6110    99.0190 h1         1 6C0       0.056367
     31 H4          55.1190  -118.6370    98.4990 ho         1 6C0       0.522000
     32 H5          52.2610  -119.8760   100.1610 ha         1 6C0       0.155000
     33 H6          52.1550  -120.2600   103.6970 ho         1 6C0       0.483000
     34 H7          56.6740  -119.0010   103.9400 hc         1 6C0       0.081200
     35 H8          57.4220  -118.2250   102.5930 hc         1 6C0       0.081200
     36 H9          56.2020  -116.0780   103.1240 hc         1 6C0       0.060200
     37 H10         55.3470  -116.8860   104.4130 hc         1 6C0       0.060200
     38 H11         60.4450  -116.3540   105.8140 h4         1 6C0       0.039100
     39 H12         58.6760  -115.1410   107.5170 h4         1 6C0       0.155000
     40 H13         56.2170  -114.5570   107.3630 h1         1 6C0       0.079200
     41 H14         55.4390  -114.7470   105.7850 h1         1 6C0       0.079200
     42 H15         54.0780  -119.0320   108.7740 ha         1 6C0       0.157000
     43 H16         56.3900  -117.6480   108.3820 ha         1 6C0       0.146000
@<TRIPOS>BOND
     1     1     2 1   
     2     1    28 1   
     3     1    29 1   
     4     1    30 1   
     5     2     3 1   
     6     3     4 2   
     7     3     5 1   
     8     5     6 ar  
     9     5    13 ar  
    10     6     7 1   
    11     6     8 ar  
    12     7    31 1   
    13     8     9 ar  
    14     8    32 1   
    15     9    10 1   
    16     9    11 ar  
    17    10    33 1   
    18    11    12 1   
    19    11    13 ar  
    20    13    14 1   
    21    14    15 1   
    22    14    34 1   
    23    14    35 1   
    24    15    16 1   
    25    15    36 1   
    26    15    37 1   
    27    16    17 2   
    28    16    20 1   
    29    17    18 1   
    30    18    19 2   
    31    18    38 1   
    32    19    20 1   
    33    19    39 1   
    34    20    21 1   
    35    21    22 1   
    36    21    40 1   
    37    21    41 1   
    38    22    23 1   
    39    22    27 2   
    40    23    24 1   
    41    24    25 1   
    42    24    26 2   
    43    26    27 1   
    44    26    42 1   
    45    27    43 1   
@<TRIPOS>SUBSTRUCTURE
     1 6C0         1 TEMP              0 ****  ****    0 ROOT
