@<TRIPOS>MOLECULE
6C2
   31    31     1     0     0
SMALL
No Charge or Current Charge


@<TRIPOS>ATOM
      1 O1          -2.3590    -2.2890    -0.0210 oh         1 6C2      -0.794000
      2 C11          0.4200     0.9010    -0.4230 c6         1 6C2       0.373300
      3 O11          1.2580     2.0290    -0.1210 os         1 6C2      -0.439000
      4 O51         -0.9010     1.1580     0.0930 os         1 6C2      -0.433000
      5 C51         -1.8940     0.1470    -0.2610 c6         1 6C2      -0.007700
      6 C61         -3.3500     0.5120     0.1980 c          1 6C2       0.733000
      7 O61         -4.1960     0.4680    -0.6880 o          1 6C2      -0.700000
      8 C41         -1.4540    -1.2210     0.3350 c6         1 6C2       0.130300
      9 C31         -0.0050    -1.5650    -0.1330 c6         1 6C2       0.154300
     10 O31          0.4010    -2.8060     0.4630 oh         1 6C2      -0.665000
     11 C21          0.9850    -0.4110     0.2100 c6         1 6C2       0.080700
     12 N2           2.3560    -0.7290    -0.2640 ns         1 6C2      -0.481900
     13 C7           3.5260    -0.3330     0.3400 c          1 6C2       0.611100
     14 C8           4.7950    -0.7620    -0.3880 c3         1 6C2      -0.180100
     15 O7           3.5500     0.2990     1.3870 o          1 6C2      -0.607100
     16 C9           0.9310     3.2590    -0.7880 c3         1 6C2       0.155900
     17 O10         -3.4600     1.3430     1.0930 o          1 6C2      -0.700000
     18 H13         -1.9110     0.0680    -1.3580 h1         1 6C2       0.022700
     19 H15         -1.4380    -1.1120     1.4310 h1         1 6C2       0.050700
     20 H16         -0.0210    -1.6800    -1.2270 h1         1 6C2       0.017700
     21 H17         -0.4320    -3.3270     0.5350 ho         1 6C2       0.454000
     22 H18          1.0060    -0.2790     1.3010 h1         1 6C2       0.117700
     23 H19          2.4530    -1.2800    -1.1080 hn         1 6C2       0.298500
     24 H20          4.7580    -0.3900    -1.4180 hc         1 6C2       0.049367
     25 H21          5.7070    -0.4390     0.1260 hc         1 6C2       0.049367
     26 H22          4.7750    -1.8480    -0.5320 hc         1 6C2       0.049367
     27 H23          1.6470     4.0430    -0.5130 h1         1 6C2       0.028033
     28 H24          0.9660     3.1310    -1.8770 h1         1 6C2       0.028033
     29 H25         -0.0730     3.6030    -0.5090 h1         1 6C2       0.028033
     30 H2          -2.5620    -2.2030    -0.9870 ho         1 6C2       0.580000
     31 H12          0.3670     0.7810    -1.5150 h2         1 6C2      -0.003300
@<TRIPOS>BOND
     1     1     8 1   
     2     1    30 1   
     3     2     3 1   
     4     2     4 1   
     5     2    11 1   
     6     2    31 1   
     7     3    16 1   
     8     4     5 1   
     9     5     6 1   
    10     5     8 1   
    11     5    18 1   
    12     6     7 1   
    13     6    17 1   
    14     8     9 1   
    15     8    19 1   
    16     9    10 1   
    17     9    11 1   
    18     9    20 1   
    19    10    21 1   
    20    11    12 1   
    21    11    22 1   
    22    12    13 1   
    23    12    23 1   
    24    13    14 1   
    25    13    15 2   
    26    14    24 1   
    27    14    25 1   
    28    14    26 1   
    29    16    27 1   
    30    16    28 1   
    31    16    29 1   
@<TRIPOS>SUBSTRUCTURE
     1 6C2         1 TEMP              0 ****  ****    0 ROOT
