@<TRIPOS>MOLECULE
6C2
   31    31     1     0     0
SMALL
abcg2


@<TRIPOS>ATOM
      1 O1          -2.2650    -2.2020    -0.2600 oh         1 6C2      -0.794000
      2 C11          0.3970     0.9340    -0.4050 c6         1 6C2       0.373300
      3 O11          1.2040     1.9650     0.0170 os         1 6C2      -0.439000
      4 O51         -0.9030     1.1600     0.0680 os         1 6C2      -0.433000
      5 C51         -1.8170     0.1820    -0.3620 c6         1 6C2      -0.007700
      6 C61         -3.2460     0.5730     0.0620 c          1 6C2       0.733000
      7 O61         -4.0830    -0.3680     0.0040 o          1 6C2      -0.700000
      8 C41         -1.4130    -1.1890     0.2010 c6         1 6C2       0.130300
      9 C31          0.0110    -1.5220    -0.2230 c6         1 6C2       0.154300
     10 O31          0.4890    -2.6950     0.3850 oh         1 6C2      -0.665000
     11 C21          0.9530    -0.3810     0.1510 c6         1 6C2       0.080700
     12 N2           2.2800    -0.6260    -0.3480 ns         1 6C2      -0.481900
     13 C7           3.4000    -0.5250     0.3890 c          1 6C2       0.611100
     14 C8           4.6830    -0.7950    -0.3560 c3         1 6C2      -0.180100
     15 O7           3.4000    -0.2490     1.5810 o          1 6C2      -0.607100
     16 C9           0.9960     3.1880    -0.6620 c3         1 6C2       0.155900
     17 O10         -3.4680     1.7370     0.3960 o          1 6C2      -0.700000
     18 H13         -1.8120     0.1120    -1.4650 h1         1 6C2       0.022700
     19 H15         -1.4320    -1.1190     1.3030 h1         1 6C2       0.050700
     20 H16          0.0110    -1.6250    -1.3220 h1         1 6C2       0.017700
     21 H17         -0.0960    -3.4190     0.1380 ho         1 6C2       0.454000
     22 H18          1.0080    -0.3010     1.2390 h1         1 6C2       0.117700
     23 H19          2.3730    -0.8510    -1.3270 hn         1 6C2       0.298500
     24 H20          4.5430    -1.0010    -1.4160 hc         1 6C2       0.049367
     25 H21          5.3450     0.0660    -0.2580 hc         1 6C2       0.049367
     26 H22          5.1910    -1.6460     0.0970 hc         1 6C2       0.049367
     27 H23          1.7760     3.8750    -0.3390 h1         1 6C2       0.028033
     28 H24          1.0720     3.0610    -1.7470 h1         1 6C2       0.028033
     29 H25          0.0240     3.6310    -0.4330 h1         1 6C2       0.028033
     30 H2          -3.1560    -1.7790    -0.2150 ho         1 6C2       0.580000
     31 H12          0.3810     0.8770    -1.5120 h2         1 6C2      -0.003300
@<TRIPOS>BOND
     1     1     8 1   
     2     1    30 1   
     3     2     3 1   
     4     2     4 1   
     5     2    11 1   
     6     2    31 1   
     7     3    16 1   
     8     4     5 1   
     9     5     6 1   
    10     5     8 1   
    11     5    18 1   
    12     6     7 1   
    13     6    17 1   
    14     8     9 1   
    15     8    19 1   
    16     9    10 1   
    17     9    11 1   
    18     9    20 1   
    19    10    21 1   
    20    11    12 1   
    21    11    22 1   
    22    12    13 1   
    23    12    23 1   
    24    13    14 1   
    25    13    15 2   
    26    14    24 1   
    27    14    25 1   
    28    14    26 1   
    29    16    27 1   
    30    16    28 1   
    31    16    29 1   
@<TRIPOS>SUBSTRUCTURE
     1 6C2         1 TEMP              0 ****  ****    0 ROOT
