@<TRIPOS>MOLECULE
6C3
   37    40     1     0     0
SMALL
bcc


@<TRIPOS>ATOM
      1 C1          -0.2720    -3.3810     0.3440 ca         1 6C3       0.109600
      2 C2          -1.1430    -3.4800     1.4390 ca         1 6C3      -0.127800
      3 C3          -1.6380    -2.3040     2.0190 ca         1 6C3      -0.052000
      4 C7          -1.5140    -4.7940     1.9020 cc         1 6C3       0.112600
      5 C8          -1.0240    -5.8970     1.2770 cd         1 6C3      -0.252000
      6 C9          -0.1110    -5.7980     0.1380 c          1 6C3       0.715700
      7 C10         -3.7420    -5.3870     2.8320 ca         1 6C3      -0.106000
      8 C11         -4.6120    -5.5360     3.9020 ca         1 6C3      -0.127500
      9 C12         -4.1910    -5.2320     5.1900 ca         1 6C3      -0.115000
     10 C13         -2.8990    -4.7700     5.4040 ca         1 6C3      -0.127500
     11 C14         -2.0300    -4.6110     4.3350 ca         1 6C3      -0.106000
     12 C15         -2.4460    -4.9260     3.0450 ca         1 6C3      -0.083800
     13 C16         -1.1880    -7.8610     2.9380 cc         1 6C3      -0.375600
     14 C19         -1.7870   -10.2880     3.6880 c3         1 6C3      -0.131400
     15 C4          -1.2550    -1.0810     1.5250 ca         1 6C3      -0.017600
     16 C5          -0.3790    -0.9840     0.4420 ca         1 6C3      -0.061000
     17 C6           0.1070    -2.1280    -0.1460 ca         1 6C3      -0.182000
     18 N1           0.1950    -4.5240    -0.2430 ns         1 6C3      -0.438100
     19 CL1         -1.8710     0.3680     2.2470 cl         1 6C3      -0.099400
     20 O1           0.3680    -6.7660    -0.4330 o          1 6C3      -0.595500
     21 C17         -1.3380    -7.2470     1.7430 cd         1 6C3       0.356500
     22 O2          -1.8870    -8.1020     0.8730 os         1 6C3      -0.096100
     23 N2          -2.1100    -9.2960     1.4880 nd         1 6C3      -0.360300
     24 C18         -1.6980    -9.1670     2.7170 cc         1 6C3       0.339600
     25 H3          -2.3260    -2.3620     2.8510 ha         1 6C3       0.161000
     26 H10         -4.0700    -5.6290     1.8290 ha         1 6C3       0.140500
     27 H11         -5.6180    -5.8930     3.7280 ha         1 6C3       0.136500
     28 H12         -4.8680    -5.3540     6.0250 ha         1 6C3       0.135000
     29 H13         -2.5640    -4.5340     6.4060 ha         1 6C3       0.136500
     30 H14         -1.0200    -4.2570     4.5080 ha         1 6C3       0.140500
     31 H16         -0.7830    -7.4530     3.8490 ha         1 6C3       0.171000
     32 H191        -2.3690    -9.9930     4.5610 hc         1 6C3       0.055033
     33 H192        -2.2570   -11.1610     3.2400 hc         1 6C3       0.055033
     34 H193        -0.7950   -10.5720     4.0380 hc         1 6C3       0.055033
     35 H5          -0.0860    -0.0150     0.0610 ha         1 6C3       0.153000
     36 H6           0.7810    -2.0570    -0.9890 ha         1 6C3       0.146000
     37 HN1          0.8300    -4.4320    -1.0260 hn         1 6C3       0.334500
@<TRIPOS>BOND
     1     1     2 ar  
     2     1    17 ar  
     3     1    18 1   
     4     2     3 ar  
     5     2     4 1   
     6     3    15 ar  
     7     3    25 1   
     8     4     5 2   
     9     4    12 1   
    10     5     6 1   
    11     5    21 1   
    12     6    18 1   
    13     6    20 2   
    14     7     8 ar  
    15     7    12 ar  
    16     7    26 1   
    17     8     9 ar  
    18     8    27 1   
    19     9    10 ar  
    20     9    28 1   
    21    10    11 ar  
    22    10    29 1   
    23    11    12 ar  
    24    11    30 1   
    25    13    21 2   
    26    13    24 1   
    27    13    31 1   
    28    14    24 1   
    29    14    32 1   
    30    14    33 1   
    31    14    34 1   
    32    15    16 ar  
    33    15    19 1   
    34    16    17 ar  
    35    16    35 1   
    36    17    36 1   
    37    18    37 1   
    38    21    22 1   
    39    22    23 1   
    40    23    24 2   
@<TRIPOS>SUBSTRUCTURE
     1 6C3         1 TEMP              0 ****  ****    0 ROOT
