@<TRIPOS>MOLECULE
6C3
   37    40     1     0     0
SMALL
No Charge or Current Charge


@<TRIPOS>ATOM
      1 C1          -0.3850    -3.3240     0.2430 ca         1 6C3       0.109600
      2 C2          -1.1080    -3.5090     1.4270 ca         1 6C3      -0.127800
      3 C3          -1.5470    -2.3600     2.1300 ca         1 6C3      -0.034000
      4 C7          -1.4100    -4.8700     1.9080 cc         1 6C3       0.112600
      5 C8          -0.9470    -5.9840     1.1700 cd         1 6C3      -0.252000
      6 C9          -0.1860    -5.7570    -0.1070 c          1 6C3       0.573200
      7 C10         -3.6400    -5.2860     2.9250 ca         1 6C3      -0.088000
      8 C11         -4.4690    -5.4000     4.0540 ca         1 6C3      -0.109500
      9 C12         -3.9310    -5.2370     5.3420 ca         1 6C3      -0.097000
     10 C13         -2.5630    -4.9530     5.5010 ca         1 6C3      -0.109500
     11 C14         -1.7320    -4.8400     4.3730 ca         1 6C3      -0.088000
     12 C15         -2.2640    -5.0210     3.0800 ca         1 6C3      -0.083800
     13 C16         -1.7070    -7.8440     2.7760 cc         1 6C3      -0.227000
     14 C19         -2.1630   -10.1570     3.7340 c3         1 6C3      -0.131400
     15 C4          -1.2510    -1.0720     1.6520 ca         1 6C3       0.074000
     16 C5          -0.5180    -0.9080     0.4660 ca         1 6C3      -0.043000
     17 C6          -0.0850    -2.0410    -0.2420 ca         1 6C3      -0.164000
     18 N1           0.0240    -4.4540    -0.4490 ns         1 6C3      -0.371100
     19 Cl1         -1.8030     0.3410     2.5420 cl         1 6C3      -0.191000
     20 O1           0.2530    -6.6360    -0.8310 o          1 6C3      -0.520000
     21 C17         -1.1840    -7.3650     1.6090 cd         1 6C3       0.246800
     22 O2          -0.8360    -8.4390     0.8230 os         1 6C3      -0.051700
     23 N2          -1.1700    -9.6600     1.5080 nd         1 6C3      -0.360300
     24 C18         -1.6760    -9.2400     2.6500 cc         1 6C3       0.274300
     25 H3          -2.1210    -2.4490     3.0480 ha         1 6C3       0.143000
     26 H10         -4.0610    -5.4060     1.9290 ha         1 6C3       0.122500
     27 H11         -5.5290    -5.6120     3.9300 ha         1 6C3       0.118500
     28 H12         -4.5730    -5.3240     6.2150 ha         1 6C3       0.117000
     29 H13         -2.1480    -4.8200     6.4980 ha         1 6C3       0.118500
     30 H14         -0.6750    -4.6160     4.5000 ha         1 6C3       0.122500
     31 H16         -2.0590    -7.3440     3.6630 ha         1 6C3       0.153000
     32 H191        -3.1680    -9.8690     4.0610 hc         1 6C3       0.055033
     33 H192        -2.2040   -11.1960     3.3880 hc         1 6C3       0.055033
     34 H193        -1.4960   -10.1140     4.6030 hc         1 6C3       0.055033
     35 H5          -0.2910     0.0890     0.0980 ha         1 6C3       0.135000
     36 H6           0.4780    -1.9190    -1.1640 ha         1 6C3       0.128000
     37 HN1          0.5390    -4.3050    -1.3070 hn         1 6C3       0.334500
@<TRIPOS>BOND
     1     1     2 ar  
     2     1    17 ar  
     3     1    18 1   
     4     2     3 ar  
     5     2     4 1   
     6     3    15 ar  
     7     3    25 1   
     8     4     5 2   
     9     4    12 1   
    10     5     6 1   
    11     5    21 1   
    12     6    18 1   
    13     6    20 2   
    14     7     8 ar  
    15     7    12 ar  
    16     7    26 1   
    17     8     9 ar  
    18     8    27 1   
    19     9    10 ar  
    20     9    28 1   
    21    10    11 ar  
    22    10    29 1   
    23    11    12 ar  
    24    11    30 1   
    25    13    21 2   
    26    13    24 1   
    27    13    31 1   
    28    14    24 1   
    29    14    32 1   
    30    14    33 1   
    31    14    34 1   
    32    15    16 ar  
    33    15    19 1   
    34    16    17 ar  
    35    16    35 1   
    36    17    36 1   
    37    18    37 1   
    38    21    22 1   
    39    22    23 1   
    40    23    24 2   
@<TRIPOS>SUBSTRUCTURE
     1 6C3         1 TEMP              0 ****  ****    0 ROOT
