@<TRIPOS>MOLECULE
6C4
   35    36     1     0     0
SMALL
No Charge or Current Charge


@<TRIPOS>ATOM
      1 C2           2.1020    -0.8820     0.4940 c5         1 6C4      -0.149700
      2 C4           4.4960    -0.4790     0.1480 c5         1 6C4      -0.079900
      3 C5           0.9170     0.1010     0.7190 c          1 6C4       0.601100
      4 C6          -1.4390     0.0080     1.6060 c3         1 6C4       0.107000
      5 C7          -2.4850    -0.2190     0.4900 c5         1 6C4      -0.085700
      6 C9          -3.4790     0.2330    -1.6670 c5         1 6C4      -0.080400
      7 C11         -3.8580     0.4420     0.7640 c5         1 6C4      -0.075400
      8 O            0.8770     1.2900     0.4340 o          1 6C4      -0.607100
      9 C1           2.4800    -0.9250    -1.0270 c5         1 6C4      -0.065900
     10 C3           3.3880    -0.3550     1.2240 c5         1 6C4      -0.065900
     11 C            3.7300    -0.0150    -1.1120 c5         1 6C4      -0.079900
     12 N           -0.1290    -0.5740     1.3080 ns         1 6C4      -0.507900
     13 C10         -4.6020     0.2010    -0.5800 c5         1 6C4      -0.080400
     14 C8          -2.1580     0.4460    -0.8720 c5         1 6C4      -0.075400
     15 H1           1.8390    -1.8870     0.8460 hc         1 6C4       0.050700
     16 H2           5.3650     0.1530     0.3680 hc         1 6C4       0.046700
     17 H3           4.8560    -1.5110     0.0500 hc         1 6C4       0.046700
     18 H4          -1.3250     1.0860     1.7850 h1         1 6C4       0.052700
     19 H5          -1.8110    -0.4420     2.5360 h1         1 6C4       0.052700
     20 H6          -2.5940    -1.3050     0.3770 hc         1 6C4       0.044700
     21 H7          -3.4550    -0.7120    -2.2230 hc         1 6C4       0.044200
     22 H8          -3.6380     1.0290    -2.4030 hc         1 6C4       0.044200
     23 H9          -4.3820    -0.0120     1.6130 hc         1 6C4       0.044700
     24 H10         -3.7580     1.5140     0.9800 hc         1 6C4       0.044700
     25 H11          2.7240    -1.9480    -1.3370 hc         1 6C4       0.048950
     26 H12          1.6690    -0.5840    -1.6820 hc         1 6C4       0.048950
     27 H13          3.2800     0.6890     1.5440 hc         1 6C4       0.048950
     28 H14          3.6200    -0.9350     2.1240 hc         1 6C4       0.048950
     29 H15          3.4690     1.0490    -1.0650 hc         1 6C4       0.046700
     30 H16          4.3010    -0.1750    -2.0340 hc         1 6C4       0.046700
     31 H17          0.0160    -1.5570     1.5030 hn         1 6C4       0.308500
     32 H18         -5.3730     0.9600    -0.7580 hc         1 6C4       0.044200
     33 H19         -5.1090    -0.7710    -0.5780 hc         1 6C4       0.044200
     34 H20         -1.9300     1.5130    -0.7560 hc         1 6C4       0.044700
     35 H21         -1.2990    -0.0160    -1.3720 hc         1 6C4       0.044700
@<TRIPOS>BOND
     1     1     3 1   
     2     1     9 1   
     3     1    10 1   
     4     1    15 1   
     5     2    10 1   
     6     2    11 1   
     7     2    16 1   
     8     2    17 1   
     9     3     8 2   
    10     3    12 1   
    11     4     5 1   
    12     4    12 1   
    13     4    18 1   
    14     4    19 1   
    15     5     7 1   
    16     5    14 1   
    17     5    20 1   
    18     6    13 1   
    19     6    14 1   
    20     6    21 1   
    21     6    22 1   
    22     7    13 1   
    23     7    23 1   
    24     7    24 1   
    25     9    11 1   
    26     9    25 1   
    27     9    26 1   
    28    10    27 1   
    29    10    28 1   
    30    11    29 1   
    31    11    30 1   
    32    12    31 1   
    33    13    32 1   
    34    13    33 1   
    35    14    34 1   
    36    14    35 1   
@<TRIPOS>SUBSTRUCTURE
     1 6C4         1 TEMP              0 ****  ****    0 ROOT
