@<TRIPOS>MOLECULE
6C4
   35    36     1     0     0
SMALL
bcc


@<TRIPOS>ATOM
      1 C2           2.1970    -0.5690    -0.1510 c5         1 6C4      -0.149700
      2 C4           4.5130    -0.7390     0.6080 c5         1 6C4      -0.079900
      3 C5           1.0490     0.3460     0.2150 c          1 6C4       0.668100
      4 C6          -1.3170     0.4090     0.8970 c3         1 6C4       0.107000
      5 C7          -2.5610    -0.4060     0.5790 c5         1 6C4      -0.085700
      6 C9          -4.2480    -0.4950    -1.1790 c5         1 6C4      -0.080400
      7 C11         -3.8510     0.3130     1.0450 c5         1 6C4      -0.075400
      8 O            1.1940     1.5570     0.3350 o          1 6C4      -0.607100
      9 C1           3.1550     0.0510    -1.1930 c5         1 6C4      -0.065900
     10 C3           3.0720    -0.8400     1.1040 c5         1 6C4      -0.065900
     11 C            4.4410     0.3730    -0.4320 c5         1 6C4      -0.079900
     12 N           -0.1240    -0.2680     0.4360 ns         1 6C4      -0.574900
     13 C10         -4.6300     0.6380    -0.2330 c5         1 6C4      -0.080400
     14 C8          -2.7480    -0.6500    -0.9340 c5         1 6C4      -0.075400
     15 H1           1.8030    -1.5160    -0.5290 hc         1 6C4       0.050700
     16 H2           5.2210    -0.5380     1.4140 hc         1 6C4       0.046700
     17 H3           4.8170    -1.6750     0.1320 hc         1 6C4       0.046700
     18 H4          -1.3840     1.3840     0.4090 h1         1 6C4       0.052700
     19 H5          -1.2580     0.5950     1.9760 h1         1 6C4       0.052700
     20 H6          -2.4770    -1.3670     1.0960 hc         1 6C4       0.044700
     21 H7          -4.7760    -1.4100    -0.8970 hc         1 6C4       0.044200
     22 H8          -4.4880    -0.2880    -2.2240 hc         1 6C4       0.044200
     23 H9          -4.4390    -0.3520     1.6800 hc         1 6C4       0.044700
     24 H10         -3.6360     1.2040     1.6390 hc         1 6C4       0.044700
     25 H11          3.3640    -0.6910    -1.9660 hc         1 6C4       0.048950
     26 H12          2.7320     0.9200    -1.6960 hc         1 6C4       0.048950
     27 H13          2.9000    -0.0710     1.8610 hc         1 6C4       0.048950
     28 H14          2.8390    -1.8010     1.5620 hc         1 6C4       0.048950
     29 H15          4.3500     1.3420     0.0670 hc         1 6C4       0.046700
     30 H16          5.3160     0.4180    -1.0810 hc         1 6C4       0.046700
     31 H17         -0.1540    -1.2730     0.3780 hn         1 6C4       0.308500
     32 H18         -4.2960     1.5930    -0.6490 hc         1 6C4       0.044200
     33 H19         -5.7050     0.7190    -0.0620 hc         1 6C4       0.044200
     34 H20         -2.2060     0.1130    -1.5030 hc         1 6C4       0.044700
     35 H21         -2.3610    -1.6180    -1.2550 hc         1 6C4       0.044700
@<TRIPOS>BOND
     1     1     3 1   
     2     1     9 1   
     3     1    10 1   
     4     1    15 1   
     5     2    10 1   
     6     2    11 1   
     7     2    16 1   
     8     2    17 1   
     9     3     8 2   
    10     3    12 1   
    11     4     5 1   
    12     4    12 1   
    13     4    18 1   
    14     4    19 1   
    15     5     7 1   
    16     5    14 1   
    17     5    20 1   
    18     6    13 1   
    19     6    14 1   
    20     6    21 1   
    21     6    22 1   
    22     7    13 1   
    23     7    23 1   
    24     7    24 1   
    25     9    11 1   
    26     9    25 1   
    27     9    26 1   
    28    10    27 1   
    29    10    28 1   
    30    11    29 1   
    31    11    30 1   
    32    12    31 1   
    33    13    32 1   
    34    13    33 1   
    35    14    34 1   
    36    14    35 1   
@<TRIPOS>SUBSTRUCTURE
     1 6C4         1 TEMP              0 ****  ****    0 ROOT
