@<TRIPOS>MOLECULE
6C5
   34    35     1     0     0
SMALL
No Charge or Current Charge


@<TRIPOS>ATOM
      1 C1          -3.7100     0.6990    -0.1890 c5         1 6C5       0.111500
      2 C2          -2.2800    -1.2450     0.3340 c5         1 6C5       0.111500
      3 C3          -3.7110    -1.7000    -0.0520 c5         1 6C5      -0.094900
      4 C5           1.2810     1.1240     0.1830 c3         1 6C5       0.117000
      5 C6           2.4780     0.1670     0.3700 c5         1 6C5      -0.085700
      6 C7           2.6390    -0.9040    -0.7400 c5         1 6C5      -0.073900
      7 N1          -0.0110     0.4400     0.2190 ns         1 6C5      -0.515900
      8 C8           4.0220    -1.5270    -0.3950 c5         1 6C5      -0.080400
      9 C9           4.8250    -0.3710     0.2870 c5         1 6C5      -0.080400
     10 C10          3.8630     0.8500     0.2560 c5         1 6C5      -0.073900
     11 O           -1.3050     2.2290    -0.3110 o          1 6C5      -0.649100
     12 N           -2.3360     0.2040     0.0330 n          1 6C5      -0.440800
     13 C           -4.5580    -0.4730     0.3680 c5         1 6C5      -0.094900
     14 H1          -3.9090     1.6380     0.3430 h1         1 6C5       0.046950
     15 H2          -3.8930     0.8570    -1.2610 h1         1 6C5       0.046950
     16 H3          -2.0780    -1.4100     1.4010 h1         1 6C5       0.046950
     17 H4          -1.5170    -1.7710    -0.2570 h1         1 6C5       0.046950
     18 H5          -3.7890    -1.8830    -1.1300 hc         1 6C5       0.053200
     19 H6          -4.0100    -2.6210     0.4610 hc         1 6C5       0.053200
     20 H7           1.2980     1.8820     0.9770 h1         1 6C5       0.051200
     21 H8           1.3790     1.6400    -0.7820 h1         1 6C5       0.051200
     22 H9           2.3580    -0.3040     1.3550 hc         1 6C5       0.042700
     23 H10          1.8360    -1.6510    -0.7260 hc         1 6C5       0.045450
     24 H11          2.6420    -0.4520    -1.7390 hc         1 6C5       0.045450
     25 H12         -0.0310    -0.5440     0.4430 hn         1 6C5       0.301500
     26 H13          3.9110    -2.3760     0.2900 hc         1 6C5       0.041700
     27 H14          4.5260    -1.9070    -1.2910 hc         1 6C5       0.041700
     28 H15          5.0850    -0.6380     1.3180 hc         1 6C5       0.041700
     29 H16          5.7660    -0.1580    -0.2330 hc         1 6C5       0.041700
     30 H17          3.9620     1.4140    -0.6800 hc         1 6C5       0.045450
     31 H18          4.0560     1.5500     1.0780 hc         1 6C5       0.045450
     32 H19         -4.6490    -0.4100     1.4590 hc         1 6C5       0.053200
     33 H20         -5.5720    -0.4910    -0.0470 hc         1 6C5       0.053200
     34 C4          -1.2150     1.0420    -0.0390 c          1 6C5       0.654100
@<TRIPOS>BOND
     1     1    12 1   
     2     1    13 1   
     3     1    14 1   
     4     1    15 1   
     5     2     3 1   
     6     2    12 1   
     7     2    16 1   
     8     2    17 1   
     9     3    13 1   
    10     3    18 1   
    11     3    19 1   
    12     4     5 1   
    13     4     7 1   
    14     4    20 1   
    15     4    21 1   
    16     5     6 1   
    17     5    10 1   
    18     5    22 1   
    19     6     8 1   
    20     6    23 1   
    21     6    24 1   
    22     7    25 1   
    23     7    34 1   
    24     8     9 1   
    25     8    26 1   
    26     8    27 1   
    27     9    10 1   
    28     9    28 1   
    29     9    29 1   
    30    10    30 1   
    31    10    31 1   
    32    11    34 2   
    33    12    34 1   
    34    13    32 1   
    35    13    33 1   
@<TRIPOS>SUBSTRUCTURE
     1 6C5         1 TEMP              0 ****  ****    0 ROOT
