@<TRIPOS>MOLECULE
6C5
   34    35     1     0     0
SMALL
bcc


@<TRIPOS>ATOM
      1 C1          -3.5860     0.7090    -0.2880 c5         1 6C5       0.111500
      2 C2          -2.3210    -1.2440     0.3980 c5         1 6C5       0.111500
      3 C3          -3.7350    -1.6590     0.0020 c5         1 6C5      -0.094900
      4 C5           1.2660     1.0280     0.2640 c3         1 6C5       0.117000
      5 C6           2.4330     0.0780     0.4550 c5         1 6C5      -0.085700
      6 C7           2.6010    -0.9800    -0.6350 c5         1 6C5      -0.073900
      7 N1           0.0110     0.3060     0.2770 ns         1 6C5      -0.582900
      8 C8           4.0210    -1.4850    -0.3970 c5         1 6C5      -0.080400
      9 C9           4.8210    -0.2130    -0.0720 c5         1 6C5      -0.080400
     10 C10          3.7880     0.8030     0.4680 c5         1 6C5      -0.073900
     11 O           -1.1840     2.0630    -0.5200 o          1 6C5      -0.649100
     12 N           -2.2770     0.1680     0.0480 n          1 6C5      -0.507800
     13 C           -4.5400    -0.3780     0.1940 c5         1 6C5      -0.094900
     14 H1          -3.7630     1.6660     0.2030 h1         1 6C5       0.046950
     15 H2          -3.6840     0.8670    -1.3670 h1         1 6C5       0.046950
     16 H3          -2.1550    -1.3950     1.4710 h1         1 6C5       0.046950
     17 H4          -1.5610    -1.8140    -0.1400 h1         1 6C5       0.046950
     18 H5          -3.7540    -1.9620    -1.0470 hc         1 6C5       0.053200
     19 H6          -4.1010    -2.4960     0.5960 hc         1 6C5       0.053200
     20 H7           1.2900     1.8020     1.0400 h1         1 6C5       0.051200
     21 H8           1.3730     1.5390    -0.6950 h1         1 6C5       0.051200
     22 H9           2.3100    -0.4430     1.4140 hc         1 6C5       0.042700
     23 H10          1.8500    -1.7700    -0.5960 hc         1 6C5       0.045450
     24 H11          2.5280    -0.5060    -1.6210 hc         1 6C5       0.045450
     25 H12         -0.0270    -0.5060     0.8730 hn         1 6C5       0.301500
     26 H13          4.0240    -2.1630     0.4600 hc         1 6C5       0.041700
     27 H14          4.4310    -2.0370    -1.2440 hc         1 6C5       0.041700
     28 H15          5.6220    -0.4070     0.6420 hc         1 6C5       0.041700
     29 H16          5.2960     0.1750    -0.9740 hc         1 6C5       0.041700
     30 H17          3.7450     1.6810    -0.1830 hc         1 6C5       0.045450
     31 H18          4.0400     1.1650     1.4660 hc         1 6C5       0.045450
     32 H19         -4.7730    -0.2320     1.2510 hc         1 6C5       0.053200
     33 H20         -5.4790    -0.3750    -0.3580 hc         1 6C5       0.053200
     34 C4          -1.1540     0.9130    -0.0820 c          1 6C5       0.788100
@<TRIPOS>BOND
     1     1    12 1   
     2     1    13 1   
     3     1    14 1   
     4     1    15 1   
     5     2     3 1   
     6     2    12 1   
     7     2    16 1   
     8     2    17 1   
     9     3    13 1   
    10     3    18 1   
    11     3    19 1   
    12     4     5 1   
    13     4     7 1   
    14     4    20 1   
    15     4    21 1   
    16     5     6 1   
    17     5    10 1   
    18     5    22 1   
    19     6     8 1   
    20     6    23 1   
    21     6    24 1   
    22     7    25 1   
    23     7    34 1   
    24     8     9 1   
    25     8    26 1   
    26     8    27 1   
    27     9    10 1   
    28     9    28 1   
    29     9    29 1   
    30    10    30 1   
    31    10    31 1   
    32    11    34 2   
    33    12    34 1   
    34    13    32 1   
    35    13    33 1   
@<TRIPOS>SUBSTRUCTURE
     1 6C5         1 TEMP              0 ****  ****    0 ROOT
