@<TRIPOS>MOLECULE
6C8
   27    28     1     0     0
SMALL
abcg2


@<TRIPOS>ATOM
      1 O1          -1.2210    -2.1130    -0.1120 o          1 6C8      -0.618100
      2 C6          -1.1830    -0.8840    -0.0690 c          1 6C8       0.611300
      3 N           -2.3080    -0.1480    -0.0630 n          1 6C8      -0.416800
      4 C10         -3.6200    -0.7840    -0.0430 c5         1 6C8       0.104500
      5 C9          -4.5630     0.3620     0.2990 c5         1 6C8      -0.094900
      6 C8          -3.8820     1.5680    -0.3360 c5         1 6C8      -0.094900
      7 C7          -2.4010     1.3120    -0.0760 c5         1 6C8       0.104500
      8 C5           0.0980    -0.1440    -0.0100 ce         1 6C8      -0.305200
      9 C4           1.2640    -0.7980    -0.0470 cf         1 6C8      -0.047200
     10 C3           2.5810    -0.1960     0.0090 cd         1 6C8      -0.154800
     11 C            3.8290    -0.9050     0.0000 cd         1 6C8      -0.166000
     12 C2           2.9190     1.1240     0.0770 cc         1 6C8       0.150900
     13 O            4.2510     1.2660     0.1110 os         1 6C8      -0.234000
     14 C1           4.8000     0.0310     0.0650 cc         1 6C8       0.115900
     15 H1          -3.8550    -1.2120    -1.0220 h1         1 6C8       0.049950
     16 H2          -3.6520    -1.5930     0.6870 h1         1 6C8       0.049950
     17 H3          -5.5720     0.1890    -0.0740 hc         1 6C8       0.053950
     18 H4          -4.6250     0.4880     1.3820 hc         1 6C8       0.053950
     19 H5          -4.0740     1.5900    -1.4110 hc         1 6C8       0.053950
     20 H6          -4.2090     2.5200     0.0800 hc         1 6C8       0.053950
     21 H7          -2.0920     1.7330     0.8850 h1         1 6C8       0.049950
     22 H8          -1.7730     1.7490    -0.8530 h1         1 6C8       0.049950
     23 H9           0.0810     0.9350     0.0740 ha         1 6C8       0.174000
     24 H10          1.2470    -1.8800    -0.1240 ha         1 6C8       0.201000
     25 H11          3.9670    -1.9730    -0.0460 ha         1 6C8       0.148000
     26 H12          2.3340     2.0300     0.1050 h4         1 6C8       0.054100
     27 H13          5.8760    -0.0220     0.0830 h4         1 6C8       0.056100
@<TRIPOS>BOND
     1     1     2 2   
     2     2     3 1   
     3     2     8 1   
     4     3     4 1   
     5     3     7 1   
     6     4     5 1   
     7     4    15 1   
     8     4    16 1   
     9     5     6 1   
    10     5    17 1   
    11     5    18 1   
    12     6     7 1   
    13     6    19 1   
    14     6    20 1   
    15     7    21 1   
    16     7    22 1   
    17     8     9 2   
    18     8    23 1   
    19     9    10 1   
    20     9    24 1   
    21    10    11 1   
    22    10    12 2   
    23    11    14 2   
    24    11    25 1   
    25    12    13 1   
    26    12    26 1   
    27    13    14 1   
    28    14    27 1   
@<TRIPOS>SUBSTRUCTURE
     1 6C8         1 TEMP              0 ****  ****    0 ROOT
