@<TRIPOS>MOLECULE
6C8
   27    28     1     0     0
SMALL
No Charge or Current Charge


@<TRIPOS>ATOM
      1 O1          -1.2450    -2.1550    -0.1230 o          1 6C8      -0.618100
      2 C6          -1.1900    -0.9330    -0.0750 c          1 6C8       0.611300
      3 N           -2.3720    -0.1660    -0.0630 n          1 6C8      -0.416800
      4 C10         -3.7150    -0.7840    -0.0660 c5         1 6C8       0.104500
      5 C9          -4.6110     0.4110     0.3450 c5         1 6C8      -0.094900
      6 C8          -3.9110     1.5870    -0.3780 c5         1 6C8      -0.094900
      7 C7          -2.4180     1.3140    -0.0590 c5         1 6C8       0.104500
      8 C5           0.1280    -0.2290    -0.0200 ce         1 6C8      -0.305200
      9 C4           1.3380    -0.8590    -0.0410 cf         1 6C8      -0.047200
     10 C3           2.6560    -0.2280     0.0140 cd         1 6C8      -0.154800
     11 C            3.9130    -0.8730    -0.0060 cd         1 6C8      -0.166000
     12 C2           2.9270     1.1160     0.0940 cc         1 6C8       0.150900
     13 O            4.2880     1.3260     0.1250 os         1 6C8      -0.234000
     14 C1           4.8820     0.0880     0.0620 cc         1 6C8       0.115900
     15 H1          -3.9670    -1.1530    -1.0690 h1         1 6C8       0.049950
     16 H2          -3.7940    -1.6180     0.6450 h1         1 6C8       0.049950
     17 H3          -5.6540     0.2790     0.0360 hc         1 6C8       0.053950
     18 H4          -4.6040     0.5550     1.4320 hc         1 6C8       0.053950
     19 H5          -4.0960     1.5520    -1.4590 hc         1 6C8       0.053950
     20 H6          -4.2430     2.5680    -0.0200 hc         1 6C8       0.053950
     21 H7          -2.1380     1.7060     0.9280 h1         1 6C8       0.049950
     22 H8          -1.7610     1.7590    -0.8180 h1         1 6C8       0.049950
     23 H9           0.1150     0.8530     0.0460 ha         1 6C8       0.174000
     24 H10          1.3530    -1.9510    -0.1040 ha         1 6C8       0.201000
     25 H11          4.0900    -1.9420    -0.0640 ha         1 6C8       0.148000
     26 H12          2.2840     1.9850     0.1350 h4         1 6C8       0.054100
     27 H13          5.9620     0.0370     0.0740 h4         1 6C8       0.056100
@<TRIPOS>BOND
     1     1     2 2   
     2     2     3 1   
     3     2     8 1   
     4     3     4 1   
     5     3     7 1   
     6     4     5 1   
     7     4    15 1   
     8     4    16 1   
     9     5     6 1   
    10     5    17 1   
    11     5    18 1   
    12     6     7 1   
    13     6    19 1   
    14     6    20 1   
    15     7    21 1   
    16     7    22 1   
    17     8     9 2   
    18     8    23 1   
    19     9    10 1   
    20     9    24 1   
    21    10    11 1   
    22    10    12 2   
    23    11    14 2   
    24    11    25 1   
    25    12    13 1   
    26    12    26 1   
    27    13    14 1   
    28    14    27 1   
@<TRIPOS>SUBSTRUCTURE
     1 6C8         1 TEMP              0 ****  ****    0 ROOT
