@<TRIPOS>MOLECULE
6C9
   32    33     1     0     0
SMALL
No Charge or Current Charge


@<TRIPOS>ATOM
      1 O1           0.6670    -1.4880    -0.8670 o          1 6C9      -0.646100
      2 C5           0.9410    -0.6680    -0.0050 c          1 6C9       0.652100
      3 N1           2.1790    -0.0130     0.0330 n          1 6C9      -0.439800
      4 C9           2.5740     0.9760     1.0620 c5         1 6C9       0.110500
      5 C8           4.0990     1.0990     0.8090 c5         1 6C9      -0.094900
      6 C7           4.1770     0.9540    -0.7300 c5         1 6C9      -0.094900
      7 C6           3.2280    -0.2450    -0.9820 c5         1 6C9       0.110500
      8 N            0.0600    -0.3240     0.9910 ns         1 6C9      -0.511900
      9 C4          -1.3010    -0.8460     1.1270 c3         1 6C9       0.118000
     10 C1          -2.3640    -0.0020     0.3910 c5         1 6C9      -0.121700
     11 C2          -2.2380     0.0380    -1.1480 c5         1 6C9       0.152600
     12 O           -3.4730     0.6620    -1.5440 os         1 6C9      -0.456000
     13 C3          -4.5280     0.1620    -0.6880 c5         1 6C9       0.151600
     14 C           -3.8130    -0.5510     0.4990 c5         1 6C9      -0.107400
     15 H1           2.0600     1.9320     0.8960 h1         1 6C9       0.047700
     16 H2           4.5080     2.0490     1.1710 hc         1 6C9       0.054450
     17 H3           3.8120     1.8580    -1.2320 hc         1 6C9       0.054450
     18 H4           3.7310    -1.2050    -0.8020 h1         1 6C9       0.047700
     19 H5           0.3790     0.3650     1.6580 hn         1 6C9       0.299500
     20 H6          -1.3310    -1.8790     0.7560 h1         1 6C9       0.052700
     21 H7          -1.5500    -0.8740     2.1960 h1         1 6C9       0.052700
     22 H8          -2.3060     1.0140     0.7990 hc         1 6C9       0.071700
     23 H9          -1.3840     0.6350    -1.4970 h1         1 6C9       0.043200
     24 H10         -2.1800    -0.9680    -1.5860 h1         1 6C9       0.043200
     25 H11         -5.1390     1.0110    -0.3500 h1         1 6C9       0.045700
     26 H12         -3.8450    -1.6390     0.3700 hc         1 6C9       0.056700
     27 H13          2.3620     0.6320     2.0830 h1         1 6C9       0.047700
     28 H14          4.6480     0.2920     1.3100 hc         1 6C9       0.054450
     29 H15          5.1950     0.7660    -1.0910 hc         1 6C9       0.054450
     30 H16          2.8290    -0.2450    -2.0050 h1         1 6C9       0.047700
     31 H17         -5.1690    -0.5280    -1.2530 h1         1 6C9       0.045700
     32 H18         -4.2800    -0.3240     1.4640 hc         1 6C9       0.056700
@<TRIPOS>BOND
     1     1     2 2   
     2     2     3 1   
     3     2     8 1   
     4     3     4 1   
     5     3     7 1   
     6     4     5 1   
     7     4    15 1   
     8     4    27 1   
     9     5     6 1   
    10     5    16 1   
    11     5    28 1   
    12     6     7 1   
    13     6    17 1   
    14     6    29 1   
    15     7    18 1   
    16     7    30 1   
    17     8     9 1   
    18     8    19 1   
    19     9    10 1   
    20     9    20 1   
    21     9    21 1   
    22    10    11 1   
    23    10    14 1   
    24    10    22 1   
    25    11    12 1   
    26    11    23 1   
    27    11    24 1   
    28    12    13 1   
    29    13    14 1   
    30    13    25 1   
    31    13    31 1   
    32    14    26 1   
    33    14    32 1   
@<TRIPOS>SUBSTRUCTURE
     1 6C9         1 TEMP              0 ****  ****    0 ROOT
