@<TRIPOS>MOLECULE
6C9
   32    33     1     0     0
SMALL
bcc


@<TRIPOS>ATOM
      1 O1           1.2800    -2.1950     0.0860 o          1 6C9      -0.646100
      2 C5           1.2230    -0.9670     0.1290 c          1 6C9       0.786100
      3 N1           2.3310    -0.1930     0.0790 n          1 6C9      -0.506800
      4 C9           2.3640     1.2550     0.2250 c5         1 6C9       0.110500
      5 C8           3.8490     1.5550     0.4030 c5         1 6C9      -0.094900
      6 C7           4.5260     0.4380    -0.3860 c5         1 6C9      -0.094900
      7 C6           3.6560    -0.7750    -0.0780 c5         1 6C9       0.110500
      8 N            0.0350    -0.3050     0.2580 ns         1 6C9      -0.578900
      9 C4          -1.2160    -1.0260     0.1460 c3         1 6C9       0.118000
     10 C1          -2.3930    -0.1210     0.4560 c5         1 6C9      -0.121700
     11 C2          -2.6360     0.9820    -0.5700 c5         1 6C9       0.129400
     12 O           -3.9780     1.3760    -0.3820 os         1 6C9      -0.409600
     13 C3          -4.7350     0.2590     0.0690 c5         1 6C9       0.128400
     14 C           -3.7360    -0.8510     0.4100 c5         1 6C9      -0.107400
     15 H1           1.9700     1.7550    -0.6670 h1         1 6C9       0.047700
     16 H2           4.1120     2.5540     0.0610 hc         1 6C9       0.054450
     17 H3           4.5010     0.6590    -1.4550 hc         1 6C9       0.054450
     18 H4           3.9830    -1.2690     0.8430 h1         1 6C9       0.047700
     19 H5           0.0070     0.6720     0.0170 hn         1 6C9       0.299500
     20 H6          -1.3470    -1.4550    -0.8560 h1         1 6C9       0.052700
     21 H7          -1.2080    -1.8640     0.8450 h1         1 6C9       0.052700
     22 H8          -2.2510     0.3310     1.4440 hc         1 6C9       0.071700
     23 H9          -2.0000     1.8600    -0.4380 h1         1 6C9       0.043200
     24 H10         -2.4660     0.5940    -1.5860 h1         1 6C9       0.043200
     25 H11         -5.3180     0.5660     0.9410 h1         1 6C9       0.045700
     26 H12         -3.7210    -1.6150    -0.3720 hc         1 6C9       0.056700
     27 H13          1.7750     1.5880     1.0830 h1         1 6C9       0.047700
     28 H14          4.1170     1.4810     1.4600 hc         1 6C9       0.054450
     29 H15          5.5660     0.2820    -0.1000 hc         1 6C9       0.054450
     30 H16          3.6710    -1.5170    -0.8770 h1         1 6C9       0.047700
     31 H17         -5.4420    -0.0610    -0.7030 h1         1 6C9       0.045700
     32 H18         -3.9710    -1.3480     1.3510 hc         1 6C9       0.056700
@<TRIPOS>BOND
     1     1     2 2   
     2     2     3 1   
     3     2     8 1   
     4     3     4 1   
     5     3     7 1   
     6     4     5 1   
     7     4    15 1   
     8     4    27 1   
     9     5     6 1   
    10     5    16 1   
    11     5    28 1   
    12     6     7 1   
    13     6    17 1   
    14     6    29 1   
    15     7    18 1   
    16     7    30 1   
    17     8     9 1   
    18     8    19 1   
    19     9    10 1   
    20     9    20 1   
    21     9    21 1   
    22    10    11 1   
    23    10    14 1   
    24    10    22 1   
    25    11    12 1   
    26    11    23 1   
    27    11    24 1   
    28    12    13 1   
    29    13    14 1   
    30    13    25 1   
    31    13    31 1   
    32    14    26 1   
    33    14    32 1   
@<TRIPOS>SUBSTRUCTURE
     1 6C9         1 TEMP              0 ****  ****    0 ROOT
