@<TRIPOS>MOLECULE
6CA
   68    71     1     0     0
SMALL
abcg2


@<TRIPOS>ATOM
      1 O35         20.9970    45.1650    37.8790 o          1 6CA      -0.719000
      2 C33         20.9420    44.6170    38.9910 c          1 6CA       0.722600
      3 O34         19.9530    44.6650    39.7700 o          1 6CA      -0.719000
      4 C32         22.1660    43.8430    39.4530 ca         1 6CA      -0.211600
      5 C36         23.3210    43.9150    38.6780 ca         1 6CA      -0.049000
      6 C37         24.4990    43.2770    39.0310 ca         1 6CA      -0.201000
      7 C38         24.5280    42.5460    40.2120 ca         1 6CA      -0.089000
      8 C39         23.4020    42.4450    41.0080 ca         1 6CA      -0.225000
      9 C31         22.1970    43.0720    40.6450 ca         1 6CA       0.357000
     10 N30         21.0690    42.9960    41.4160 nu         1 6CA      -1.012000
     11 C27         20.8160    42.2060    42.5320 ca         1 6CA       0.321000
     12 C28         20.0390    42.7340    43.5620 ca         1 6CA      -0.137000
     13 C29         19.6940    41.9820    44.6770 ca         1 6CA      -0.144000
     14 C26         21.2360    40.8770    42.6540 ca         1 6CA      -0.137000
     15 C25         20.9190    40.1320    43.7760 ca         1 6CA      -0.144000
     16 C24         20.1440    40.6710    44.8030 ca         1 6CA       0.078100
     17 O23         19.8630    39.8490    45.8390 os         1 6CA      -0.358100
     18 C22         19.2720    40.3760    47.0160 c3         1 6CA       0.168600
     19 C21         20.2180    41.2360    47.8410 c3         1 6CA      -0.108400
     20 C20         21.5710    40.5930    48.1370 c3         1 6CA      -0.067400
     21 C19         21.5120    39.2380    48.8390 c3         1 6CA      -0.073400
     22 C18         20.7660    39.2210    50.1720 c3         1 6CA      -0.080400
     23 C17         21.3930    40.1410    51.1990 c3         1 6CA       0.165600
     24 O16         20.6840    39.9820    52.4190 os         1 6CA      -0.360100
     25 C11         21.0330    40.7340    53.4790 ca         1 6CA       0.125100
     26 C12         22.0820    41.6510    53.4870 ca         1 6CA      -0.177000
     27 C13         22.3570    42.3750    54.6400 ca         1 6CA      -0.076500
     28 C10         20.2760    40.5610    54.6400 ca         1 6CA      -0.177000
     29 C9          20.5640    41.2900    55.7760 ca         1 6CA      -0.076500
     30 C8          21.6110    42.2170    55.8060 cp         1 6CA      -0.030000
     31 C5          21.9100    42.9940    57.0230 cp         1 6CA      -0.076000
     32 C6          20.8890    43.4010    57.8860 ca         1 6CA      -0.127500
     33 C7          21.1690    44.1250    59.0330 ca         1 6CA      -0.093000
     34 C4          23.2200    43.3480    57.3550 ca         1 6CA      -0.127500
     35 C3          23.4950    44.0780    58.5020 ca         1 6CA      -0.093000
     36 C2          22.4760    44.4780    59.3620 ca         1 6CA      -0.123600
     37 C1          22.7760    45.2760    60.6240 c          1 6CA       0.712600
     38 O14         23.9700    45.5650    60.8320 o          1 6CA      -0.722500
     39 O15         21.8010    45.5700    61.3420 o          1 6CA      -0.722500
     40 H36         23.2850    44.5010    37.7690 ha         1 6CA       0.124000
     41 H37         25.3780    43.3560    38.4050 ha         1 6CA       0.087000
     42 H38         25.4390    42.0500    40.5260 ha         1 6CA       0.080000
     43 H39         23.4640    41.8890    41.9320 ha         1 6CA       0.098000
     44 H30         20.3430    43.6400    41.0810 hn         1 6CA       0.570000
     45 H28         19.6950    43.7590    43.4950 ha         1 6CA       0.121500
     46 H29         19.0840    42.4490    45.4390 ha         1 6CA       0.106000
     47 H26         21.8050    40.4070    41.8640 ha         1 6CA       0.121500
     48 H25         21.2610    39.1070    43.8510 ha         1 6CA       0.106000
     49 H221        18.9630    39.4970    47.5830 h1         1 6CA       0.043700
     50 H222        18.3580    40.9320    46.7810 h1         1 6CA       0.043700
     51 H211        19.6920    41.4810    48.7690 hc         1 6CA       0.047700
     52 H212        20.3910    42.1940    47.3450 hc         1 6CA       0.047700
     53 H201        22.1580    41.2980    48.7320 hc         1 6CA       0.044700
     54 H202        22.1260    40.4750    47.2030 hc         1 6CA       0.044700
     55 H191        22.5350    38.8840    48.9990 hc         1 6CA       0.042200
     56 H192        21.0480    38.5030    48.1750 hc         1 6CA       0.042200
     57 H181        20.7650    38.2000    50.5610 hc         1 6CA       0.048200
     58 H182        19.7180    39.5010    50.0280 hc         1 6CA       0.048200
     59 H171        21.3420    41.1860    50.8730 h1         1 6CA       0.032700
     60 H172        22.4520    39.8910    51.3380 h1         1 6CA       0.032700
     61 H12         22.6900    41.8230    52.6100 ha         1 6CA       0.110500
     62 H13         23.1650    43.0950    54.6090 ha         1 6CA       0.114500
     63 H10         19.4640    39.8450    54.6440 ha         1 6CA       0.110500
     64 H9          19.9690    41.1180    56.6650 ha         1 6CA       0.114500
     65 H6          19.8590    43.1650    57.6490 ha         1 6CA       0.087000
     66 H7          20.3590    44.4300    59.6820 ha         1 6CA       0.126000
     67 H4          24.0410    43.0330    56.7220 ha         1 6CA       0.087000
     68 H3          24.5200    44.3300    58.7370 ha         1 6CA       0.126000
@<TRIPOS>BOND
     1     1     2 1   
     2     2     3 1   
     3     2     4 1   
     4     4     5 ar  
     5     4     9 ar  
     6     5     6 ar  
     7     5    40 1   
     8     6     7 ar  
     9     6    41 1   
    10     7     8 ar  
    11     7    42 1   
    12     8     9 ar  
    13     8    43 1   
    14     9    10 1   
    15    10    11 1   
    16    10    44 1   
    17    11    12 ar  
    18    11    14 ar  
    19    12    13 ar  
    20    12    45 1   
    21    13    16 ar  
    22    13    46 1   
    23    14    15 ar  
    24    14    47 1   
    25    15    16 ar  
    26    15    48 1   
    27    16    17 1   
    28    17    18 1   
    29    18    19 1   
    30    18    49 1   
    31    18    50 1   
    32    19    20 1   
    33    19    51 1   
    34    19    52 1   
    35    20    21 1   
    36    20    53 1   
    37    20    54 1   
    38    21    22 1   
    39    21    55 1   
    40    21    56 1   
    41    22    23 1   
    42    22    57 1   
    43    22    58 1   
    44    23    24 1   
    45    23    59 1   
    46    23    60 1   
    47    24    25 1   
    48    25    26 ar  
    49    25    28 ar  
    50    26    27 ar  
    51    26    61 1   
    52    27    30 ar  
    53    27    62 1   
    54    28    29 ar  
    55    28    63 1   
    56    29    30 ar  
    57    29    64 1   
    58    30    31 1   
    59    31    32 ar  
    60    31    34 ar  
    61    32    33 ar  
    62    32    65 1   
    63    33    36 ar  
    64    33    66 1   
    65    34    35 ar  
    66    34    67 1   
    67    35    36 ar  
    68    35    68 1   
    69    36    37 1   
    70    37    38 1   
    71    37    39 1   
@<TRIPOS>SUBSTRUCTURE
     1 6CA         1 TEMP              0 ****  ****    0 ROOT
