@<TRIPOS>MOLECULE
6CA
   68    71     1     0     0
SMALL
No Charge or Current Charge


@<TRIPOS>ATOM
      1 O35         20.4740    44.5660    37.6670 o          1 6CA      -0.719000
      2 C33         20.7790    44.4970    38.8490 c          1 6CA       0.722600
      3 O34         20.0820    44.9600    39.7440 o          1 6CA      -0.719000
      4 C32         22.0940    43.8440    39.2070 ca         1 6CA      -0.211600
      5 C36         23.1580    43.8790    38.2750 ca         1 6CA      -0.049000
      6 C37         24.3960    43.2910    38.5780 ca         1 6CA      -0.201000
      7 C38         24.5940    42.6670    39.8160 ca         1 6CA      -0.089000
      8 C39         23.5440    42.6220    40.7450 ca         1 6CA      -0.225000
      9 C31         22.2900    43.1880    40.4440 ca         1 6CA       0.357000
     10 N30         21.2630    43.1400    41.3800 nu         1 6CA      -1.012000
     11 C27         20.9460    42.3200    42.4640 ca         1 6CA       0.321000
     12 C28         20.0890    42.8150    43.4620 ca         1 6CA      -0.137000
     13 C29         19.7300    42.0140    44.5630 ca         1 6CA      -0.144000
     14 C26         21.4170    40.9970    42.5590 ca         1 6CA      -0.137000
     15 C25         21.0600    40.1920    43.6560 ca         1 6CA      -0.144000
     16 C24         20.2270    40.6960    44.6680 ca         1 6CA       0.078100
     17 O23         19.9090    39.8540    45.7160 os         1 6CA      -0.358100
     18 C22         19.2720    40.3030    46.9310 c3         1 6CA       0.168600
     19 C21         20.2790    41.1290    47.7750 c3         1 6CA      -0.108400
     20 C20         21.6020    40.3990    48.1270 c3         1 6CA      -0.067400
     21 C19         21.4470    39.0700    48.9130 c3         1 6CA      -0.073400
     22 C18         20.6990    39.1720    50.2660 c3         1 6CA      -0.080400
     23 C17         21.3660    40.1190    51.2850 c3         1 6CA       0.165600
     24 O16         20.6130    40.0440    52.5080 os         1 6CA      -0.360100
     25 C11         20.9530    40.7780    53.6250 ca         1 6CA       0.125100
     26 C12         22.0580    41.6540    53.6530 ca         1 6CA      -0.177000
     27 C13         22.3540    42.3760    54.8240 ca         1 6CA      -0.076500
     28 C10         20.1570    40.6360    54.7710 ca         1 6CA      -0.177000
     29 C9          20.4540    41.3590    55.9390 ca         1 6CA      -0.076500
     30 C8          21.5600    42.2450    55.9910 cp         1 6CA      -0.030000
     31 C5          21.8790    43.0160    57.2360 cp         1 6CA      -0.076000
     32 C6          20.8530    43.4840    58.0930 ca         1 6CA      -0.127500
     33 C7          21.1490    44.2080    59.2610 ca         1 6CA      -0.093000
     34 C4          23.2170    43.3030    57.6010 ca         1 6CA      -0.127500
     35 C3          23.5180    44.0250    58.7690 ca         1 6CA      -0.093000
     36 C2          22.4880    44.4900    59.6180 ca         1 6CA      -0.123600
     37 C1          22.8110    45.2730    60.8830 c          1 6CA       0.712600
     38 O14         23.9840    45.4950    61.1510 o          1 6CA      -0.722500
     39 O15         21.8880    45.6530    61.5900 o          1 6CA      -0.722500
     40 H36         23.0290    44.3720    37.3130 ha         1 6CA       0.124000
     41 H37         25.2070    43.3300    37.8550 ha         1 6CA       0.087000
     42 H38         25.5580    42.2250    40.0580 ha         1 6CA       0.080000
     43 H39         23.7200    42.1590    41.7110 ha         1 6CA       0.098000
     44 H30         20.5480    43.8490    41.1580 hn         1 6CA       0.570000
     45 H28         19.7040    43.8280    43.3900 ha         1 6CA       0.121500
     46 H29         19.0660    42.4310    45.3140 ha         1 6CA       0.106000
     47 H26         22.0420    40.5800    41.7750 ha         1 6CA       0.121500
     48 H25         21.4290    39.1710    43.7210 ha         1 6CA       0.106000
     49 H221        18.9500    39.4350    47.5200 h1         1 6CA       0.043700
     50 H222        18.3740    40.8950    46.7180 h1         1 6CA       0.043700
     51 H211        19.7810    41.4440    48.6990 hc         1 6CA       0.047700
     52 H212        20.5240    42.0540    47.2420 hc         1 6CA       0.047700
     53 H201        22.2390    41.0840    48.7000 hc         1 6CA       0.044700
     54 H202        22.1500    40.1910    47.2000 hc         1 6CA       0.044700
     55 H191        22.4470    38.6580    49.0970 hc         1 6CA       0.042200
     56 H192        20.9320    38.3370    48.2800 hc         1 6CA       0.042200
     57 H181        20.6440    38.1690    50.7050 hc         1 6CA       0.048200
     58 H182        19.6650    39.4940    50.0950 hc         1 6CA       0.048200
     59 H171        21.3640    41.1450    50.8950 h1         1 6CA       0.032700
     60 H172        22.4050    39.8060    51.4510 h1         1 6CA       0.032700
     61 H12         22.6940    41.7910    52.7830 ha         1 6CA       0.110500
     62 H13         23.2030    43.0560    54.8200 ha         1 6CA       0.114500
     63 H10         19.3060    39.9600    54.7560 ha         1 6CA       0.110500
     64 H9          19.8290    41.2200    56.8170 ha         1 6CA       0.114500
     65 H6          19.8110    43.2990    57.8450 ha         1 6CA       0.087000
     66 H7          20.3300    44.5520    59.8890 ha         1 6CA       0.126000
     67 H4          24.0360    42.9510    56.9800 ha         1 6CA       0.087000
     68 H3          24.5600    44.2200    59.0120 ha         1 6CA       0.126000
@<TRIPOS>BOND
     1     1     2 1   
     2     2     3 1   
     3     2     4 1   
     4     4     5 ar  
     5     4     9 ar  
     6     5     6 ar  
     7     5    40 1   
     8     6     7 ar  
     9     6    41 1   
    10     7     8 ar  
    11     7    42 1   
    12     8     9 ar  
    13     8    43 1   
    14     9    10 1   
    15    10    11 1   
    16    10    44 1   
    17    11    12 ar  
    18    11    14 ar  
    19    12    13 ar  
    20    12    45 1   
    21    13    16 ar  
    22    13    46 1   
    23    14    15 ar  
    24    14    47 1   
    25    15    16 ar  
    26    15    48 1   
    27    16    17 1   
    28    17    18 1   
    29    18    19 1   
    30    18    49 1   
    31    18    50 1   
    32    19    20 1   
    33    19    51 1   
    34    19    52 1   
    35    20    21 1   
    36    20    53 1   
    37    20    54 1   
    38    21    22 1   
    39    21    55 1   
    40    21    56 1   
    41    22    23 1   
    42    22    57 1   
    43    22    58 1   
    44    23    24 1   
    45    23    59 1   
    46    23    60 1   
    47    24    25 1   
    48    25    26 ar  
    49    25    28 ar  
    50    26    27 ar  
    51    26    61 1   
    52    27    30 ar  
    53    27    62 1   
    54    28    29 ar  
    55    28    63 1   
    56    29    30 ar  
    57    29    64 1   
    58    30    31 1   
    59    31    32 ar  
    60    31    34 ar  
    61    32    33 ar  
    62    32    65 1   
    63    33    36 ar  
    64    33    66 1   
    65    34    35 ar  
    66    34    67 1   
    67    35    36 ar  
    68    35    68 1   
    69    36    37 1   
    70    37    38 1   
    71    37    39 1   
@<TRIPOS>SUBSTRUCTURE
     1 6CA         1 TEMP              0 ****  ****    0 ROOT
