@<TRIPOS>MOLECULE
6CB
   50    53     1     0     0
SMALL
No Charge or Current Charge


@<TRIPOS>ATOM
      1 C1           1.5640     3.3280     0.5940 ca         1 6CB       0.401300
      2 C2           2.4140     2.2310     0.8300 ca         1 6CB      -0.201000
      3 C3           2.3710     1.1050    -0.0210 cp         1 6CB       0.030000
      4 C11          0.6550    -2.7700    -0.1820 c          1 6CB       0.530600
      5 C12         -0.8460    -2.4900    -0.2830 ca         1 6CB       0.190500
      6 C13         -2.5520    -0.8610    -0.2930 cp         1 6CB       0.344500
      7 C14         -3.5320    -1.8660    -0.4770 ca         1 6CB      -0.069000
      8 C15         -3.1500    -3.2190    -0.5570 ca         1 6CB      -0.186000
      9 C16         -1.7900    -3.5530    -0.4560 ca         1 6CB       0.359000
     10 C17         -2.9070     0.5920    -0.2250 cp         1 6CB      -0.178500
     11 C18         -3.9220     1.1150    -1.0700 ca         1 6CB      -0.089000
     12 C19         -4.2690     2.4770    -1.0370 ca         1 6CB      -0.136000
     13 C20         -3.6130     3.3500    -0.1560 ca         1 6CB      -0.083000
     14 C21         -2.6120     2.8570     0.6950 ca         1 6CB      -0.143000
     15 C22         -2.2600     1.4970     0.6640 ca         1 6CB       0.197000
     16 F           -1.3130     1.0710     1.5320 f          1 6CB      -0.163000
     17 N4          -1.2430    -1.1780    -0.2110 nb         1 6CB      -0.636000
     18 N5          -1.4540    -4.8880    -0.5240 nv         1 6CB      -1.088000
     19 O            1.1610    -3.8830    -0.3230 o          1 6CB      -0.620100
     20 C10          2.8070    -1.4160     0.2150 ca         1 6CB      -0.049000
     21 C9           3.7350    -2.4660     0.4260 ca         1 6CB       0.313900
     22 N2           5.0600    -2.2560     0.6150 nb         1 6CB      -0.645000
     23 C8           5.5040    -0.9800     0.6040 ca         1 6CB       0.304900
     24 C7           4.6570     0.1210     0.4070 ca         1 6CB      -0.126000
     25 C6           3.2710    -0.0720     0.1970 cp         1 6CB      -0.060000
     26 C4           1.4520     1.1730    -1.0910 ca         1 6CB      -0.218000
     27 C5           0.6580     2.3120    -1.2310 ca         1 6CB       0.600900
     28 N           -0.2440     2.4710    -2.2010 nv         1 6CB      -1.045900
     29 N1           0.6910     3.3690    -0.4340 nb         1 6CB      -0.754000
     30 C            1.5780     4.5390     1.5070 c3         1 6CB      -0.144400
     31 H3           3.0940     2.2490     1.6760 ha         1 6CB       0.127000
     32 H11         -4.5820    -1.5950    -0.5430 ha         1 6CB       0.127000
     33 H12         -3.9040    -3.9910    -0.6880 ha         1 6CB       0.122000
     34 H15         -4.4370     0.4620    -1.7720 ha         1 6CB       0.116000
     35 H16         -5.0460     2.8550    -1.6980 ha         1 6CB       0.121000
     36 H17         -3.8820     4.4050    -0.1310 ha         1 6CB       0.123000
     37 H18         -2.1040     3.5270     1.3830 ha         1 6CB       0.141000
     38 H13         -0.4590    -5.1260    -0.5830 hn         1 6CB       0.501500
     39 H14         -2.1180    -5.5660    -0.8930 hn         1 6CB       0.501500
     40 H10          0.8500    -0.7880     0.1290 hn         1 6CB       0.198000
     41 H9           3.4210    -3.5060     0.4690 h4         1 6CB       0.049100
     42 H8           6.5730    -0.8370     0.7600 h4         1 6CB       0.021100
     43 H7           5.0790     1.1220     0.4050 ha         1 6CB       0.127000
     44 H4           1.3700     0.3640    -1.8100 ha         1 6CB       0.129000
     45 H6          -0.6240     1.6250    -2.6070 hn         1 6CB       0.467500
     46 H5          -0.9060     3.2160    -2.0310 hn         1 6CB       0.467500
     47 H1           1.4710     5.4700     0.9370 hc         1 6CB       0.049700
     48 H            0.7550     4.4880     2.2290 hc         1 6CB       0.049700
     49 H2           2.5160     4.6030     2.0700 hc         1 6CB       0.049700
     50 N3           1.4100    -1.6300     0.0620 ns         1 6CB      -0.124000
@<TRIPOS>BOND
     1     1     2 ar  
     2     1    29 ar  
     3     1    30 1   
     4     2     3 ar  
     5     2    31 1   
     6     3    25 1   
     7     3    26 ar  
     8     4     5 1   
     9     4    19 2   
    10     4    50 1   
    11     5     9 ar  
    12     5    17 ar  
    13     6     7 ar  
    14     6    10 1   
    15     6    17 ar  
    16     7     8 ar  
    17     7    32 1   
    18     8     9 ar  
    19     8    33 1   
    20     9    18 1   
    21    10    11 ar  
    22    10    15 ar  
    23    11    12 ar  
    24    11    34 1   
    25    12    13 ar  
    26    12    35 1   
    27    13    14 ar  
    28    13    36 1   
    29    14    15 ar  
    30    14    37 1   
    31    15    16 1   
    32    18    38 1   
    33    18    39 1   
    34    20    21 ar  
    35    20    25 ar  
    36    20    50 1   
    37    21    22 ar  
    38    21    41 1   
    39    22    23 ar  
    40    23    24 ar  
    41    23    42 1   
    42    24    25 ar  
    43    24    43 1   
    44    26    27 ar  
    45    26    44 1   
    46    27    28 1   
    47    27    29 ar  
    48    28    45 1   
    49    28    46 1   
    50    30    47 1   
    51    30    48 1   
    52    30    49 1   
    53    40    50 1   
@<TRIPOS>SUBSTRUCTURE
     1 6CB         1 TEMP              0 ****  ****    0 ROOT
