@<TRIPOS>MOLECULE
6CB
   50    53     1     0     0
SMALL
abcg2


@<TRIPOS>ATOM
      1 C1           1.4830     3.2460     0.7140 ca         1 6CB       0.401300
      2 C2           2.3330     2.1640     0.8850 ca         1 6CB      -0.201000
      3 C3           2.2750     1.1160    -0.0360 cp         1 6CB       0.030000
      4 C11          0.6440    -2.7160    -0.0530 c          1 6CB       0.530600
      5 C12         -0.8200    -2.4820    -0.1900 ca         1 6CB       0.190500
      6 C13         -2.4510    -0.8460    -0.2770 cp         1 6CB       0.344500
      7 C14         -3.4440    -1.8220    -0.4640 ca         1 6CB      -0.069000
      8 C15         -3.0890    -3.1430    -0.5160 ca         1 6CB      -0.186000
      9 C16         -1.7400    -3.5350    -0.3850 ca         1 6CB       0.359000
     10 C17         -2.7780     0.5930    -0.2590 cp         1 6CB      -0.178500
     11 C18         -3.7170     1.1150    -1.1520 ca         1 6CB      -0.089000
     12 C19         -4.0320     2.4640    -1.1660 ca         1 6CB      -0.136000
     13 C20         -3.4110     3.3270    -0.2720 ca         1 6CB      -0.083000
     14 C21         -2.4800     2.8370     0.6310 ca         1 6CB      -0.143000
     15 C22         -2.1790     1.4890     0.6200 ca         1 6CB       0.197000
     16 F           -1.2850     1.0420     1.5130 f          1 6CB      -0.163000
     17 N4          -1.1950    -1.2080    -0.1420 nb         1 6CB      -0.636000
     18 N5          -1.4090    -4.8420    -0.4160 nv         1 6CB      -1.088000
     19 O            1.1530    -3.8230    -0.1730 o          1 6CB      -0.620100
     20 C10          2.7040    -1.3620     0.2310 ca         1 6CB      -0.049000
     21 C9           3.6430    -2.3840     0.4050 ca         1 6CB       0.313900
     22 N2           4.9500    -2.1690     0.4550 nb         1 6CB      -0.645000
     23 C8           5.3970    -0.9260     0.3510 ca         1 6CB       0.304900
     24 C7           4.5510     0.1590     0.1960 ca         1 6CB      -0.126000
     25 C6           3.1800    -0.0450     0.1220 cp         1 6CB      -0.060000
     26 C4           1.3790     1.1950    -1.0840 ca         1 6CB      -0.218000
     27 C5           0.5490     2.3260    -1.1700 ca         1 6CB       0.600900
     28 N           -0.3350     2.4640    -2.2000 nv         1 6CB      -1.045900
     29 N1           0.6170     3.3230    -0.2950 nb         1 6CB      -0.754000
     30 C            1.4790     4.3880     1.6830 c3         1 6CB      -0.144400
     31 H3           3.0140     2.1280     1.7240 ha         1 6CB       0.127000
     32 H11         -4.4840    -1.5410    -0.5570 ha         1 6CB       0.127000
     33 H12         -3.8480    -3.9040    -0.6530 ha         1 6CB       0.122000
     34 H15         -4.1920     0.4500    -1.8620 ha         1 6CB       0.116000
     35 H16         -4.7550     2.8420    -1.8770 ha         1 6CB       0.121000
     36 H17         -3.6490     4.3830    -0.2750 ha         1 6CB       0.123000
     37 H18         -1.9840     3.4910     1.3350 ha         1 6CB       0.141000
     38 H13         -0.4420    -5.1030    -0.4990 hn         1 6CB       0.501500
     39 H14         -2.0960    -5.5070    -0.7300 hn         1 6CB       0.501500
     40 H10          0.7310    -0.7570     0.2350 hn         1 6CB       0.198000
     41 H9           3.3220    -3.4090     0.5120 h4         1 6CB       0.049100
     42 H8           6.4700    -0.7820     0.3970 h4         1 6CB       0.021100
     43 H7           4.9560     1.1590     0.1150 ha         1 6CB       0.127000
     44 H4           1.3170     0.4200    -1.8380 ha         1 6CB       0.129000
     45 H6          -0.6410     1.6220    -2.6590 hn         1 6CB       0.467500
     46 H5          -1.0730     3.1330    -2.0500 hn         1 6CB       0.467500
     47 H1           1.5460     5.3420     1.1610 hc         1 6CB       0.049700
     48 H            0.5470     4.3980     2.2520 hc         1 6CB       0.049700
     49 H2           2.3040     4.3210     2.3890 hc         1 6CB       0.049700
     50 N3           1.3310    -1.5760     0.2010 ns         1 6CB      -0.124000
@<TRIPOS>BOND
     1     1     2 ar  
     2     1    29 ar  
     3     1    30 1   
     4     2     3 ar  
     5     2    31 1   
     6     3    25 1   
     7     3    26 ar  
     8     4     5 1   
     9     4    19 2   
    10     4    50 1   
    11     5     9 ar  
    12     5    17 ar  
    13     6     7 ar  
    14     6    10 1   
    15     6    17 ar  
    16     7     8 ar  
    17     7    32 1   
    18     8     9 ar  
    19     8    33 1   
    20     9    18 1   
    21    10    11 ar  
    22    10    15 ar  
    23    11    12 ar  
    24    11    34 1   
    25    12    13 ar  
    26    12    35 1   
    27    13    14 ar  
    28    13    36 1   
    29    14    15 ar  
    30    14    37 1   
    31    15    16 1   
    32    18    38 1   
    33    18    39 1   
    34    20    21 ar  
    35    20    25 ar  
    36    20    50 1   
    37    21    22 ar  
    38    21    41 1   
    39    22    23 ar  
    40    23    24 ar  
    41    23    42 1   
    42    24    25 ar  
    43    24    43 1   
    44    26    27 ar  
    45    26    44 1   
    46    27    28 1   
    47    27    29 ar  
    48    28    45 1   
    49    28    46 1   
    50    30    47 1   
    51    30    48 1   
    52    30    49 1   
    53    40    50 1   
@<TRIPOS>SUBSTRUCTURE
     1 6CB         1 TEMP              0 ****  ****    0 ROOT
