@<TRIPOS>MOLECULE
6CC
   25    26     1     0     0
SMALL
abcg2


@<TRIPOS>ATOM
      1 C13         -3.2730     1.3740    -0.1170 cc         1 6CC      -0.273000
      2 C5           1.9050     1.2560     0.0340 ca         1 6CC       0.195000
      3 C6           1.4390    -0.0550     0.0320 ca         1 6CC      -0.307500
      4 S7           2.5430    -1.4580     0.0810 sy         1 6CC       1.156600
      5 O9           3.4490    -1.2820     1.1990 o          1 6CC      -0.524000
      6 O10          1.7110    -2.6450     0.0050 o          1 6CC      -0.524000
      7 N8           3.4440    -1.4360    -1.2840 n8         1 6CC      -1.015100
      8 C2           0.0750    -0.3030     0.0170 ca         1 6CC       0.024000
      9 C4           1.0020     2.3060     0.0080 ca         1 6CC      -0.126000
     10 C3          -0.3560     2.0500    -0.0060 ca         1 6CC      -0.043000
     11 C1          -0.8440     0.7440    -0.0010 ca         1 6CC      -0.131500
     12 C12         -2.2810     0.4530    -0.0070 cd         1 6CC       0.379500
     13 N16         -2.6930    -0.8500     0.1070 nd         1 6CC      -0.728000
     14 C15         -3.9850    -0.9400     0.0940 cc         1 6CC       0.710300
     15 N17         -4.6780    -2.0870     0.2510 nv         1 6CC      -1.043900
     16 S14         -4.8080     0.5910    -0.0670 ss         1 6CC      -0.093400
     17 H1          -3.2060     2.4440    -0.2250 h4         1 6CC       0.161000
     18 H2           4.1420    -0.7040    -1.3350 hn         1 6CC       0.485000
     19 H3           2.9110    -1.5220    -2.1410 hn         1 6CC       0.485000
     20 H4          -0.2880    -1.3210     0.0200 ha         1 6CC       0.171000
     21 H5           1.3610     3.3260     0.0040 ha         1 6CC       0.133000
     22 H6          -1.0360     2.8910    -0.0170 ha         1 6CC       0.121000
     23 H7          -4.1640    -2.9430     0.1160 hn         1 6CC       0.484500
     24 H8          -5.6380    -2.1240    -0.0470 hn         1 6CC       0.484500
     25 CL1          3.5910     1.6240     0.0480 cl         1 6CC      -0.182000
@<TRIPOS>BOND
     1     1    12 2   
     2     1    16 1   
     3     1    17 1   
     4     2     3 ar  
     5     2     9 ar  
     6     2    25 1   
     7     3     4 1   
     8     3     8 ar  
     9     4     5 2   
    10     4     6 2   
    11     4     7 1   
    12     7    18 1   
    13     7    19 1   
    14     8    11 ar  
    15     8    20 1   
    16     9    10 ar  
    17     9    21 1   
    18    10    11 ar  
    19    10    22 1   
    20    11    12 1   
    21    12    13 1   
    22    13    14 2   
    23    14    15 1   
    24    14    16 1   
    25    15    23 1   
    26    15    24 1   
@<TRIPOS>SUBSTRUCTURE
     1 6CC         1 TEMP              0 ****  ****    0 ROOT
