@<TRIPOS>MOLECULE
6CC
   25    26     1     0     0
SMALL
No Charge or Current Charge


@<TRIPOS>ATOM
      1 C13         -3.3570     1.3390    -0.0440 cc         1 6CC      -0.273000
      2 C5           1.8810     1.2780    -0.0990 ca         1 6CC       0.195000
      3 C6           1.4470    -0.0610     0.0130 ca         1 6CC      -0.307500
      4 S7           2.6010    -1.4320     0.1260 sy         1 6CC       1.156600
      5 O9           3.6980    -1.1020     1.0330 o          1 6CC      -0.524000
      6 O10          1.8750    -2.6990     0.2070 o          1 6CC      -0.524000
      7 N8           3.3050    -1.4310    -1.3530 n8         1 6CC      -1.015100
      8 C2           0.0600    -0.3370     0.0470 ca         1 6CC       0.024000
      9 C4           0.9360     2.3120    -0.1690 ca         1 6CC      -0.126000
     10 C3          -0.4390     2.0330    -0.1300 ca         1 6CC      -0.043000
     11 C1          -0.8970     0.7030    -0.0220 ca         1 6CC      -0.131500
     12 C12         -2.3470     0.3980     0.0180 cd         1 6CC       0.379500
     13 N16         -2.7870    -0.9160     0.1230 nd         1 6CC      -0.728000
     14 C15         -4.0890    -0.9260     0.1440 cc         1 6CC       0.710300
     15 N17         -4.6950    -2.1120     0.2310 nv         1 6CC      -1.043900
     16 S14         -4.9280     0.5910     0.0300 ss         1 6CC      -0.093400
     17 H1          -3.2880     2.4140    -0.1270 h4         1 6CC       0.161000
     18 H2           4.2500    -1.7220    -1.1160 hn         1 6CC       0.485000
     19 H3           3.4040    -0.4370    -1.5390 hn         1 6CC       0.485000
     20 H4          -0.2800    -1.3690     0.1310 ha         1 6CC       0.171000
     21 H5           1.2730     3.3410    -0.2600 ha         1 6CC       0.133000
     22 H6          -1.1370     2.8640    -0.1870 ha         1 6CC       0.121000
     23 H7          -4.0980    -2.9010     0.0190 hn         1 6CC       0.484500
     24 H8          -5.6480    -2.1650    -0.1070 hn         1 6CC       0.484500
     25 Cl1          3.5840     1.7280    -0.1970 cl         1 6CC      -0.182000
@<TRIPOS>BOND
     1     1    12 2   
     2     1    16 1   
     3     1    17 1   
     4     2     3 ar  
     5     2     9 ar  
     6     2    25 1   
     7     3     4 1   
     8     3     8 ar  
     9     4     5 2   
    10     4     6 2   
    11     4     7 1   
    12     7    18 1   
    13     7    19 1   
    14     8    11 ar  
    15     8    20 1   
    16     9    10 ar  
    17     9    21 1   
    18    10    11 ar  
    19    10    22 1   
    20    11    12 1   
    21    12    13 1   
    22    13    14 2   
    23    14    15 1   
    24    14    16 1   
    25    15    23 1   
    26    15    24 1   
@<TRIPOS>SUBSTRUCTURE
     1 6CC         1 TEMP              0 ****  ****    0 ROOT
