@<TRIPOS>MOLECULE
6CD
   50    53     1     0     0
SMALL
abcg2


@<TRIPOS>ATOM
      1 C01         -5.5610     2.3570     0.3550 c3         1 6CD      -0.104100
      2 C02         -4.8300     1.1360     0.8970 c5         1 6CD       0.195000
      3 N03         -5.2920    -0.1120     0.3020 ns         1 6CD      -0.536900
      4 C04         -4.3410    -0.8510    -0.3420 c          1 6CD       0.616600
      5 O05         -4.5290    -1.9230    -0.8960 o          1 6CD      -0.551000
      6 C06         -3.1080    -0.0720    -0.2110 cc         1 6CD      -0.238600
      7 C07         -1.7320    -0.0400    -0.5380 cc         1 6CD      -0.058000
      8 C08         -1.2390     1.1370    -0.0130 cd         1 6CD      -0.112000
      9 N09         -2.2850     1.7960     0.6160 na         1 6CD      -0.083000
     10 C10         -3.3970     1.0560     0.5000 cd         1 6CD      -0.179300
     11 C11          0.0770     1.7700    -0.0790 ca         1 6CD      -0.037000
     12 C12          0.1630     3.1520    -0.1540 ca         1 6CD      -0.071000
     13 C13          1.3860     3.8240    -0.1800 ca         1 6CD      -0.159000
     14 C14          2.5550     3.1020    -0.1350 ca         1 6CD      -0.018000
     15 C15          2.5030     1.7080    -0.0630 ca         1 6CD      -0.242600
     16 C16          3.7410     0.9490     0.0160 c          1 6CD       0.589600
     17 O17          4.8480     1.4620    -0.0020 o          1 6CD      -0.546000
     18 N18          3.5900    -0.4240     0.1270 n          1 6CD      -0.361300
     19 C19          4.7870    -1.2420     0.2550 c3         1 6CD       0.060300
     20 C20          2.3350    -1.0140     0.1160 cc         1 6CD       0.750800
     21 N21          2.3150    -2.3510     0.2270 nu         1 6CD      -0.906400
     22 C22          1.1470    -3.2370     0.0940 c3         1 6CD       0.274200
     23 C23          0.0760    -2.9170     1.1350 c3         1 6CD      -0.106767
     24 C24          0.5880    -3.1700    -1.3280 c3         1 6CD      -0.106767
     25 C25          1.6790    -4.6460     0.3570 c3         1 6CD      -0.106767
     26 N26          1.2290    -0.3380     0.0230 nd         1 6CD      -0.720100
     27 C27          1.2820     1.0160    -0.0440 ca         1 6CD       0.266400
     28 H1          -5.4500     2.4250    -0.7270 hc         1 6CD       0.046367
     29 H2          -6.6230     2.3070     0.5940 hc         1 6CD       0.046367
     30 H3          -5.1600     3.2670     0.8020 hc         1 6CD       0.046367
     31 H4          -4.9440     1.0980     1.9850 h1         1 6CD       0.060700
     32 H5          -6.2440    -0.4260     0.4000 hn         1 6CD       0.326500
     33 H6          -1.1650    -0.7600    -1.0980 ha         1 6CD       0.155000
     34 H7          -2.1920     2.6480     1.1460 hn         1 6CD       0.348000
     35 H8          -0.7450     3.7410    -0.2120 ha         1 6CD       0.106000
     36 H9           1.4060     4.9030    -0.2430 ha         1 6CD       0.119000
     37 H10          3.5140     3.6030    -0.1540 ha         1 6CD       0.135000
     38 H11          5.6560    -0.5960     0.2760 h1         1 6CD       0.057033
     39 H12          4.7650    -1.8130     1.1830 h1         1 6CD       0.057033
     40 H13          4.8900    -1.9210    -0.5920 h1         1 6CD       0.057033
     41 H14          3.1970    -2.8330     0.2180 hn         1 6CD       0.492000
     42 H15         -0.3760    -1.9430     0.9710 hc         1 6CD       0.049033
     43 H16         -0.7120    -3.6710     1.0880 hc         1 6CD       0.049033
     44 H17          0.5010    -2.9400     2.1410 hc         1 6CD       0.049033
     45 H18          1.3430    -3.4800    -2.0510 hc         1 6CD       0.049033
     46 H19         -0.2690    -3.8380    -1.4280 hc         1 6CD       0.049033
     47 H20          0.2660    -2.1630    -1.5860 hc         1 6CD       0.049033
     48 H21          2.0860    -4.7320     1.3670 hc         1 6CD       0.049033
     49 H22          0.8740    -5.3720     0.2580 hc         1 6CD       0.049033
     50 H23          2.4610    -4.9200    -0.3550 hc         1 6CD       0.049033
@<TRIPOS>BOND
     1     1     2 1   
     2     1    28 1   
     3     1    29 1   
     4     1    30 1   
     5     2     3 1   
     6     2    10 1   
     7     2    31 1   
     8     3     4 1   
     9     3    32 1   
    10     4     5 2   
    11     4     6 1   
    12     6     7 1   
    13     6    10 2   
    14     7     8 2   
    15     7    33 1   
    16     8     9 1   
    17     8    11 1   
    18     9    10 1   
    19     9    34 1   
    20    11    12 ar  
    21    11    27 ar  
    22    12    13 ar  
    23    12    35 1   
    24    13    14 ar  
    25    13    36 1   
    26    14    15 ar  
    27    14    37 1   
    28    15    16 1   
    29    15    27 ar  
    30    16    17 2   
    31    16    18 1   
    32    18    19 1   
    33    18    20 1   
    34    19    38 1   
    35    19    39 1   
    36    19    40 1   
    37    20    21 1   
    38    20    26 2   
    39    21    22 1   
    40    21    41 1   
    41    22    23 1   
    42    22    24 1   
    43    22    25 1   
    44    23    42 1   
    45    23    43 1   
    46    23    44 1   
    47    24    45 1   
    48    24    46 1   
    49    24    47 1   
    50    25    48 1   
    51    25    49 1   
    52    25    50 1   
    53    26    27 1   
@<TRIPOS>SUBSTRUCTURE
     1 6CD         1 TEMP              0 ****  ****    0 ROOT
