@<TRIPOS>MOLECULE
6CD
   50    53     1     0     0
SMALL
No Charge or Current Charge


@<TRIPOS>ATOM
      1 C01         -5.7500     2.2630    -0.2640 c3         1 6CD      -0.104100
      2 C02         -5.0440     1.3270     0.7330 c5         1 6CD       0.195000
      3 N03         -5.3760    -0.0990     0.4980 ns         1 6CD      -0.536900
      4 C04         -4.2600    -0.8520     0.1850 c          1 6CD       0.616600
      5 O05         -4.2420    -2.0440    -0.0740 o          1 6CD      -0.551000
      6 C06         -3.1570     0.0920     0.2420 cc         1 6CD      -0.238600
      7 C07         -1.7700     0.0720     0.0450 cc         1 6CD      -0.058000
      8 C08         -1.2910     1.3610     0.2370 cd         1 6CD      -0.112000
      9 N09         -2.4340     2.1490     0.5580 na         1 6CD      -0.083000
     10 C10         -3.5490     1.3170     0.5550 cd         1 6CD      -0.179300
     11 C11          0.1090     1.8830     0.1750 ca         1 6CD      -0.037000
     12 C12          0.2530     3.2920     0.1690 ca         1 6CD      -0.071000
     13 C13          1.5100     3.8960     0.0860 ca         1 6CD      -0.159000
     14 C14          2.6550     3.1070     0.0120 ca         1 6CD      -0.018000
     15 C15          2.5480     1.7020     0.0330 ca         1 6CD      -0.242600
     16 C16          3.7780     0.8840    -0.0330 c          1 6CD       0.589600
     17 O17          4.8860     1.4010    -0.1150 o          1 6CD      -0.546000
     18 N18          3.6010    -0.4910     0.0010 n          1 6CD      -0.361300
     19 C19          4.8080    -1.3620    -0.1290 c3         1 6CD       0.060300
     20 C20          2.3270    -1.0080     0.1620 cc         1 6CD       0.750800
     21 N21          2.2570    -2.3610     0.3680 nu         1 6CD      -0.906400
     22 C22          1.1860    -3.3230     0.0770 c3         1 6CD       0.274200
     23 C23          0.0950    -3.2500     1.1720 c3         1 6CD      -0.106767
     24 C24          0.6150    -3.0980    -1.3460 c3         1 6CD      -0.106767
     25 C25          1.8430    -4.7220     0.1250 c3         1 6CD      -0.106767
     26 N26          1.1910    -0.3330     0.2080 nd         1 6CD      -0.720100
     27 C27          1.2930     1.0670     0.1200 ca         1 6CD       0.266400
     28 H1          -5.5100     1.9940    -1.2990 hc         1 6CD       0.046367
     29 H2          -6.8390     2.2120    -0.1450 hc         1 6CD       0.046367
     30 H3          -5.4440     3.3040    -0.1060 hc         1 6CD       0.046367
     31 H4          -5.2870     1.6370     1.7590 h1         1 6CD       0.060700
     32 H5          -6.2920    -0.5300     0.5230 hn         1 6CD       0.326500
     33 H6          -1.2180    -0.8110    -0.2410 ha         1 6CD       0.155000
     34 H7          -2.4370     3.1420     0.7650 hn         1 6CD       0.348000
     35 H8          -0.6150     3.9420     0.2050 ha         1 6CD       0.106000
     36 H9           1.5940     4.9810     0.0730 ha         1 6CD       0.119000
     37 H10          3.6280     3.5930    -0.0550 ha         1 6CD       0.135000
     38 H11          5.6490    -0.8220    -0.5820 h1         1 6CD       0.057033
     39 H12          5.1160    -1.7200     0.8620 h1         1 6CD       0.057033
     40 H13          4.5920    -2.2200    -0.7790 h1         1 6CD       0.057033
     41 H14          3.1580    -2.7580     0.6000 hn         1 6CD       0.492000
     42 H15         -0.3710    -2.2630     1.2240 hc         1 6CD       0.049033
     43 H16         -0.6960    -3.9830     0.9790 hc         1 6CD       0.049033
     44 H17          0.5220    -3.4650     2.1590 hc         1 6CD       0.049033
     45 H18          1.4120    -3.1550    -2.0980 hc         1 6CD       0.049033
     46 H19         -0.1300    -3.8660    -1.5870 hc         1 6CD       0.049033
     47 H20          0.1290    -2.1250    -1.4500 hc         1 6CD       0.049033
     48 H21          2.2790    -4.9230     1.1120 hc         1 6CD       0.049033
     49 H22          1.1030    -5.5060    -0.0780 hc         1 6CD       0.049033
     50 H23          2.6400    -4.8120    -0.6240 hc         1 6CD       0.049033
@<TRIPOS>BOND
     1     1     2 1   
     2     1    28 1   
     3     1    29 1   
     4     1    30 1   
     5     2     3 1   
     6     2    10 1   
     7     2    31 1   
     8     3     4 1   
     9     3    32 1   
    10     4     5 2   
    11     4     6 1   
    12     6     7 1   
    13     6    10 2   
    14     7     8 2   
    15     7    33 1   
    16     8     9 1   
    17     8    11 1   
    18     9    10 1   
    19     9    34 1   
    20    11    12 ar  
    21    11    27 ar  
    22    12    13 ar  
    23    12    35 1   
    24    13    14 ar  
    25    13    36 1   
    26    14    15 ar  
    27    14    37 1   
    28    15    16 1   
    29    15    27 ar  
    30    16    17 2   
    31    16    18 1   
    32    18    19 1   
    33    18    20 1   
    34    19    38 1   
    35    19    39 1   
    36    19    40 1   
    37    20    21 1   
    38    20    26 2   
    39    21    22 1   
    40    21    41 1   
    41    22    23 1   
    42    22    24 1   
    43    22    25 1   
    44    23    42 1   
    45    23    43 1   
    46    23    44 1   
    47    24    45 1   
    48    24    46 1   
    49    24    47 1   
    50    25    48 1   
    51    25    49 1   
    52    25    50 1   
    53    26    27 1   
@<TRIPOS>SUBSTRUCTURE
     1 6CD         1 TEMP              0 ****  ****    0 ROOT
