@<TRIPOS>MOLECULE
6CE
   58    62     1     0     0
SMALL
No Charge or Current Charge


@<TRIPOS>ATOM
      1 C8           2.3660    -1.7780     0.0570 c5         1 6CE       0.062300
      2 C5           0.8260    -0.8520     2.5470 c3         1 6CE       0.027600
      3 C6           0.3570    -1.7170     1.3380 c5         1 6CE       0.161300
      4 C2          -3.1180     0.3600     0.9050 c3         1 6CE      -0.052200
      5 C4          -4.9300     0.1160    -0.9860 ca         1 6CE      -0.093800
      6 NE2         -3.1740    -0.5080     3.2670 n7         1 6CE      -0.956500
      7 P1          -1.8160    -0.8620     4.1170 p5         1 6CE       1.179700
      8 O2          -2.0780    -0.3440     5.4840 o          1 6CE      -0.758500
      9 O3          -1.4990    -2.3090     4.0040 o          1 6CE      -0.758500
     10 S4          -0.4320     0.3820     3.1330 ss         1 6CE      -0.506400
     11 C7           1.4100    -2.7440     0.8160 c5         1 6CE       0.117300
     12 C9           1.3520    -0.7460    -0.5740 c5         1 6CE       0.320300
     13 O10          0.1280    -0.8700     0.1890 os         1 6CE      -0.417000
     14 N11          1.7970     0.6450    -0.5770 na         1 6CE      -0.216500
     15 C12          1.0420     1.7780    -0.3090 cc         1 6CE       0.442400
     16 N13          1.7450     2.9050    -0.5150 nd         1 6CE      -0.609000
     17 C14          2.9990     2.4820    -0.9630 cd         1 6CE       0.126500
     18 C15          2.9970     1.1350    -0.9770 cc         1 6CE       0.172000
     19 N16          4.0500     0.3720    -1.4570 na         1 6CE      -0.921200
     20 C17          5.1620     1.0420    -1.8260 cc         1 6CE       0.891100
     21 N18          5.2680     2.3300    -1.8210 nd         1 6CE      -0.803100
     22 C19          4.2310     3.1760    -1.4060 c          1 6CE       0.664000
     23 N20          6.1360     0.3130    -2.2610 nv         1 6CE      -1.058200
     24 O21          4.3860     4.3890    -1.4370 o          1 6CE      -0.547100
     25 O22          0.8510    -3.7070    -0.0870 oh         1 6CE      -0.697000
     26 O23          3.1920    -2.4670    -0.9090 oh         1 6CE      -0.735000
     27 C1          -3.4280    -0.8220     1.8510 c3         1 6CE       0.228800
     28 C3          -3.5760     0.1040    -0.5070 cc         1 6CE      -0.111400
     29 C13         -2.7850    -0.2080    -1.6090 cd         1 6CE      -0.160100
     30 C22         -4.9030    -0.1810    -2.3190 ca         1 6CE      -0.051200
     31 N23         -3.6060    -0.3880    -2.7490 na         1 6CE      -0.232700
     32 C24         -6.1310     0.3740    -0.3080 ca         1 6CE      -0.049000
     33 C25         -7.3320     0.3150    -1.0480 ca         1 6CE      -0.156000
     34 C26         -7.3070     0.0050    -2.4280 ca         1 6CE      -0.101000
     35 C27         -6.0800    -0.2460    -3.0780 ca         1 6CE      -0.138000
     36 H1           3.0090    -1.2560     0.7810 h1         1 6CE       0.075700
     37 H2           1.0850    -1.5140     3.3830 h1         1 6CE       0.063200
     38 H3           1.7310    -0.2960     2.2750 h1         1 6CE       0.063200
     39 H4          -0.5770    -2.2260     1.6070 h1         1 6CE       0.140700
     40 H5          -3.6080     1.2650     1.2830 hc         1 6CE       0.057700
     41 H6          -2.0450     0.5650     0.9000 hc         1 6CE       0.057700
     42 H7          -3.3170     0.4830     3.4350 hn         1 6CE       0.449000
     43 H9           1.9220    -3.2490     1.6480 h1         1 6CE       0.063700
     44 H10          1.1500    -1.0030    -1.6200 h2         1 6CE       0.079700
     45 H11          0.0120     1.7200     0.0270 h5         1 6CE       0.112100
     46 H12          4.0250    -0.6420    -1.4730 hn         1 6CE       0.515000
     47 H13          5.8440    -0.5040    -2.7730 hn         1 6CE       0.492500
     48 H14          6.8470     0.8650    -2.7190 hn         1 6CE       0.492500
     49 H15          1.4670    -3.7060    -0.8590 ho         1 6CE       0.503000
     50 H16          3.8280    -3.0390    -0.4090 ho         1 6CE       0.515000
     51 H17         -4.4940    -1.0590     1.7320 h1         1 6CE       0.038700
     52 H18         -2.8690    -1.7140     1.5350 h1         1 6CE       0.038700
     53 H19         -1.7060    -0.3230    -1.6600 h4         1 6CE       0.223000
     54 H20         -3.3060    -0.6250    -3.6900 hn         1 6CE       0.340000
     55 H21         -6.1390     0.6130     0.7520 ha         1 6CE       0.118000
     56 H22         -8.2810     0.5090    -0.5530 ha         1 6CE       0.102000
     57 H23         -8.2370    -0.0380    -2.9910 ha         1 6CE       0.097000
     58 H24         -6.0500    -0.4840    -4.1390 ha         1 6CE       0.101000
@<TRIPOS>BOND
     1     1    11 1   
     2     1    12 1   
     3     1    26 1   
     4     1    36 1   
     5     2     3 1   
     6     2    10 1   
     7     2    37 1   
     8     2    38 1   
     9     3    11 1   
    10     3    13 1   
    11     3    39 1   
    12     4    27 1   
    13     4    28 1   
    14     4    40 1   
    15     4    41 1   
    16     5    28 1   
    17     5    30 ar  
    18     5    32 ar  
    19     6     7 1   
    20     6    27 1   
    21     6    42 1   
    22     7     8 1   
    23     7     9 1   
    24     7    10 1   
    25    11    25 1   
    26    11    43 1   
    27    12    13 1   
    28    12    14 1   
    29    12    44 1   
    30    14    15 1   
    31    14    18 1   
    32    15    16 2   
    33    15    45 1   
    34    16    17 1   
    35    17    18 2   
    36    17    22 1   
    37    18    19 1   
    38    19    20 1   
    39    19    46 1   
    40    20    21 2   
    41    20    23 1   
    42    21    22 1   
    43    22    24 2   
    44    23    47 1   
    45    23    48 1   
    46    25    49 1   
    47    26    50 1   
    48    27    51 1   
    49    27    52 1   
    50    28    29 2   
    51    29    31 1   
    52    29    53 1   
    53    30    31 1   
    54    30    35 ar  
    55    31    54 1   
    56    32    33 ar  
    57    32    55 1   
    58    33    34 ar  
    59    33    56 1   
    60    34    35 ar  
    61    34    57 1   
    62    35    58 1   
@<TRIPOS>SUBSTRUCTURE
     1 6CE         1 TEMP              0 ****  ****    0 ROOT
