@<TRIPOS>MOLECULE
6CE
   58    62     1     0     0
SMALL
bcc


@<TRIPOS>ATOM
      1 C8           2.4190    -1.7310     0.1930 c5         1 6CE       0.039100
      2 C5           0.8200    -1.1500     2.7700 c3         1 6CE       0.119700
      3 C6           0.4290    -1.7900     1.4480 c5         1 6CE       0.138100
      4 C2          -3.1680     0.3120     0.9700 c3         1 6CE      -0.052200
      5 C4          -4.8210     0.1530    -1.0540 ca         1 6CE      -0.093800
      6 NE2         -3.3460    -0.4280     3.3600 n7         1 6CE      -0.901300
      7 P1          -1.9800    -0.9430     4.1910 p5         1 6CE       1.179700
      8 O2          -2.0920    -0.4250     5.5930 o          1 6CE      -0.758500
      9 O3          -1.7180    -2.3880     3.8760 o          1 6CE      -0.758500
     10 S4          -0.3050     0.1590     3.3250 ss         1 6CE      -0.598500
     11 C7           1.5040    -2.7280     0.9130 c5         1 6CE       0.094100
     12 C9           1.4020    -0.7290    -0.3710 c5         1 6CE       0.267800
     13 O10          0.2620    -0.8210     0.4070 os         1 6CE      -0.370600
     14 N11          1.8970     0.6460    -0.3350 na         1 6CE      -0.237900
     15 C12          1.3610     1.7260     0.3290 cc         1 6CE       0.442400
     16 N13          2.0080     2.8260     0.0900 nd         1 6CE      -0.609000
     17 C14          3.0160     2.4770    -0.7700 cd         1 6CE       0.191800
     18 C15          2.9470     1.1350    -1.0300 cc         1 6CE       0.019000
     19 N16          3.8140     0.4900    -1.8530 na         1 6CE      -0.727600
     20 C17          4.7850     1.2650    -2.4200 cc         1 6CE       0.891100
     21 N18          4.8970     2.5520    -2.2280 nd         1 6CE      -0.803100
     22 C19          4.0560     3.2600    -1.4010 c          1 6CE       0.664000
     23 N20          5.6790     0.6250    -3.1900 nv         1 6CE      -0.947800
     24 O21          4.1990     4.4660    -1.2350 o          1 6CE      -0.547100
     25 O22          0.9090    -3.6170     0.0070 oh         1 6CE      -0.574800
     26 O23          3.1800    -2.2690    -0.8570 oh         1 6CE      -0.612800
     27 C1          -3.6200    -0.7520     1.9770 c3         1 6CE       0.228800
     28 C3          -3.5470    -0.0500    -0.4280 cc         1 6CE      -0.111400
     29 C13         -2.7770    -0.7010    -1.3500 cd         1 6CE      -0.110100
     30 C22         -4.7430    -0.3970    -2.3540 ca         1 6CE      -0.051200
     31 N23         -3.4880    -0.9090    -2.5010 na         1 6CE      -0.182400
     32 C24         -6.0150     0.7580    -0.6420 ca         1 6CE      -0.067000
     33 C25         -7.0820     0.7990    -1.5180 ca         1 6CE      -0.174000
     34 C26         -6.9840     0.2430    -2.8050 ca         1 6CE      -0.119000
     35 C27         -5.8190    -0.3590    -3.2400 ca         1 6CE      -0.156000
     36 H1           3.0620    -1.2340     0.9280 h1         1 6CE       0.075700
     37 H2           0.8770    -1.9280     3.5310 h1         1 6CE       0.063200
     38 H3           1.8080    -0.6860     2.7150 h1         1 6CE       0.063200
     39 H4          -0.5250    -2.3010     1.5770 h1         1 6CE       0.140700
     40 H5          -3.6230     1.2700     1.2420 hc         1 6CE       0.057700
     41 H6          -2.0890     0.4440     1.0510 hc         1 6CE       0.057700
     42 H7          -3.7050     0.4730     3.6470 hn         1 6CE       0.393800
     43 H9           2.0320    -3.2510     1.7200 h1         1 6CE       0.063700
     44 H10          1.1710    -0.9620    -1.4180 h2         1 6CE       0.079700
     45 H11          0.5040     1.6190     0.9770 h5         1 6CE       0.112100
     46 H12          3.8150    -0.5220    -1.9300 hn         1 6CE       0.459800
     47 H13          5.4930    -0.2970    -3.5460 hn         1 6CE       0.437300
     48 H14          6.3140     1.1920    -3.7250 hn         1 6CE       0.437300
     49 H15          1.6020    -3.9940    -0.5480 ho         1 6CE       0.404000
     50 H16          3.9880    -2.6500    -0.4960 ho         1 6CE       0.416000
     51 H17         -4.6950    -0.9220     1.8540 h1         1 6CE       0.038700
     52 H18         -3.1380    -1.7020     1.7410 h1         1 6CE       0.038700
     53 H19         -1.7550    -1.0370    -1.2640 h4         1 6CE       0.173000
     54 H20         -3.1320    -1.3610    -3.3250 hn         1 6CE       0.289700
     55 H21         -6.1010     1.1910     0.3470 ha         1 6CE       0.136000
     56 H22         -8.0100     1.2650    -1.2130 ha         1 6CE       0.120000
     57 H23         -7.8370     0.2870    -3.4700 ha         1 6CE       0.115000
     58 H24         -5.7460    -0.7860    -4.2330 ha         1 6CE       0.119000
@<TRIPOS>BOND
     1     1    11 1   
     2     1    12 1   
     3     1    26 1   
     4     1    36 1   
     5     2     3 1   
     6     2    10 1   
     7     2    37 1   
     8     2    38 1   
     9     3    11 1   
    10     3    13 1   
    11     3    39 1   
    12     4    27 1   
    13     4    28 1   
    14     4    40 1   
    15     4    41 1   
    16     5    28 1   
    17     5    30 ar  
    18     5    32 ar  
    19     6     7 1   
    20     6    27 1   
    21     6    42 1   
    22     7     8 1   
    23     7     9 1   
    24     7    10 1   
    25    11    25 1   
    26    11    43 1   
    27    12    13 1   
    28    12    14 1   
    29    12    44 1   
    30    14    15 1   
    31    14    18 1   
    32    15    16 2   
    33    15    45 1   
    34    16    17 1   
    35    17    18 2   
    36    17    22 1   
    37    18    19 1   
    38    19    20 1   
    39    19    46 1   
    40    20    21 2   
    41    20    23 1   
    42    21    22 1   
    43    22    24 2   
    44    23    47 1   
    45    23    48 1   
    46    25    49 1   
    47    26    50 1   
    48    27    51 1   
    49    27    52 1   
    50    28    29 2   
    51    29    31 1   
    52    29    53 1   
    53    30    31 1   
    54    30    35 ar  
    55    31    54 1   
    56    32    33 ar  
    57    32    55 1   
    58    33    34 ar  
    59    33    56 1   
    60    34    35 ar  
    61    34    57 1   
    62    35    58 1   
@<TRIPOS>SUBSTRUCTURE
     1 6CE         1 TEMP              0 ****  ****    0 ROOT
