@<TRIPOS>MOLECULE
6CG
   36    38     1     0     0
SMALL
No Charge or Current Charge


@<TRIPOS>ATOM
      1 C2           4.6470    -0.6230     0.3220 cc         1 6CG       0.888100
      2 C4           2.6160     0.2830    -0.3690 cc         1 6CG       0.159000
      3 C5           3.1570     1.5030    -0.5480 cd         1 6CG       0.118500
      4 C6           4.5960     1.6760    -0.2290 c          1 6CG       0.666000
      5 N1           5.2470     0.5160     0.2090 nd         1 6CG      -0.819100
      6 N2           5.3120    -1.6700     0.6870 nv         1 6CG      -1.066200
      7 N3           3.3500    -0.8290     0.0150 na         1 6CG      -0.914200
      8 C8           1.0610     1.5680    -1.1530 cc         1 6CG       0.462400
      9 C1           0.4100    -0.8810    -0.8130 c5         1 6CG       0.316300
     10 C3          -1.0440    -2.2710     0.5540 c5         1 6CG       0.110300
     11 C9          -1.7190    -0.9040     0.2230 c5         1 6CG       0.154300
     12 C10         -1.6580     0.1500     1.3680 c3         1 6CG       0.009600
     13 O6           5.2230     2.7220    -0.3290 o          1 6CG      -0.570100
     14 N7           2.1540     2.3450    -1.0370 nd         1 6CG      -0.631000
     15 N9           1.3080     0.2690    -0.7300 na         1 6CG      -0.205500
     16 O4          -0.9630    -0.4290    -0.9180 os         1 6CG      -0.386000
     17 C7           0.4510    -1.8620     0.4230 c5         1 6CG       0.055300
     18 O2           1.3250    -3.0020     0.2550 oh         1 6CG      -0.745000
     19 O3          -1.3690    -3.2980    -0.3920 oh         1 6CG      -0.690000
     20 S5          -2.5040     1.7490     0.9560 ss         1 6CG      -0.497400
     21 P           -4.5290     1.1420     0.8040 p5         1 6CG       1.108900
     22 O1P         -4.7670     0.7400    -0.6080 o          1 6CG      -0.863833
     23 O2P         -4.7640    -0.0190     1.7040 o          1 6CG      -0.863833
     24 O3P         -5.3950     2.3020     1.1520 o          1 6CG      -0.863833
     25 H1           5.0210    -2.5230     0.2350 hn         1 6CG       0.487000
     26 H2           6.3080    -1.5070     0.6850 hn         1 6CG       0.487000
     27 H3           2.9270    -1.7470     0.1250 hn         1 6CG       0.515000
     28 H4           0.0900     1.8790    -1.5240 h5         1 6CG       0.137100
     29 H5           0.6810    -1.4140    -1.7320 h2         1 6CG       0.069700
     30 H6          -1.2850    -2.6000     1.5750 h1         1 6CG       0.054700
     31 H7          -2.7690    -1.0520    -0.0650 h1         1 6CG       0.182700
     32 H8          -2.1210    -0.2710     2.2690 h1         1 6CG       0.039700
     33 H9          -0.6140     0.3790     1.6110 h1         1 6CG       0.039700
     34 H10          0.7550    -1.3020     1.3200 h1         1 6CG       0.070700
     35 H11          1.2840    -3.5360     1.0870 ho         1 6CG       0.502000
     36 H12         -0.5000    -3.7030    -0.6250 ho         1 6CG       0.481000
@<TRIPOS>BOND
     1     1     5 2   
     2     1     6 1   
     3     1     7 1   
     4     2     3 2   
     5     2     7 1   
     6     2    15 1   
     7     3     4 1   
     8     3    14 1   
     9     4     5 1   
    10     4    13 2   
    11     6    25 1   
    12     6    26 1   
    13     7    27 1   
    14     8    14 2   
    15     8    15 1   
    16     8    28 1   
    17     9    15 1   
    18     9    16 1   
    19     9    17 1   
    20     9    29 1   
    21    10    11 1   
    22    10    17 1   
    23    10    19 1   
    24    10    30 1   
    25    11    12 1   
    26    11    16 1   
    27    11    31 1   
    28    12    20 1   
    29    12    32 1   
    30    12    33 1   
    31    17    18 1   
    32    17    34 1   
    33    18    35 1   
    34    19    36 1   
    35    20    21 1   
    36    21    22 1   
    37    21    23 1   
    38    21    24 1   
@<TRIPOS>SUBSTRUCTURE
     1 6CG         1 TEMP              0 ****  ****    0 ROOT
