@<TRIPOS>MOLECULE
6CG
   36    38     1     0     0
SMALL
bcc


@<TRIPOS>ATOM
      1 C2           4.8430    -0.6380    -0.1650 cc         1 6CG       0.888100
      2 C4           2.6880     0.1740    -0.3250 cc         1 6CG       0.006000
      3 C5           3.1410     1.4630    -0.2480 cd         1 6CG       0.183800
      4 C6           4.5630     1.7000    -0.1280 c          1 6CG       0.666000
      5 N1           5.3420     0.5670    -0.1070 nd         1 6CG      -0.819100
      6 N2           5.6540    -1.7030    -0.0740 nv         1 6CG      -0.955800
      7 N3           3.5090    -0.9070    -0.2850 na         1 6CG      -0.720600
      8 C8           1.0270     1.5670    -0.4320 cc         1 6CG       0.462400
      9 C1           0.4450    -0.9120    -0.6300 c5         1 6CG       0.263800
     10 C3          -1.0690    -2.2210     0.6550 c5         1 6CG       0.087100
     11 C9          -1.7240    -0.9300     0.1850 c5         1 6CG       0.131100
     12 C10         -1.9040     0.0890     1.2990 c3         1 6CG       0.101700
     13 O6           5.0670     2.8160    -0.0540 o          1 6CG      -0.570100
     14 N7           2.0770     2.3240    -0.3140 nd         1 6CG      -0.631000
     15 N9           1.3440     0.2280    -0.4440 na         1 6CG      -0.226900
     16 O4          -0.8410    -0.4530    -0.8410 os         1 6CG      -0.339600
     17 C7           0.4100    -1.8270     0.6040 c5         1 6CG       0.032100
     18 O2           1.3080    -2.8920     0.4220 oh         1 6CG      -0.622800
     19 O3          -1.3550    -3.2350    -0.2710 oh         1 6CG      -0.567800
     20 S5          -2.5490     1.6810     0.7180 ss         1 6CG      -0.589500
     21 P           -4.7170     1.1870     0.4640 p5         1 6CG       1.108900
     22 O1P         -4.7420     0.1050    -0.6050 o          1 6CG      -0.863833
     23 O2P         -5.1360     0.7240     1.8470 o          1 6CG      -0.863833
     24 O3P         -5.2100     2.5550     0.0310 o          1 6CG      -0.863833
     25 H1           5.3400    -2.6230    -0.3310 hn         1 6CG       0.431800
     26 H2           6.6440    -1.5360    -0.1290 hn         1 6CG       0.431800
     27 H3           3.1420    -1.8500    -0.2150 hn         1 6CG       0.459800
     28 H4           0.0030     1.9020    -0.5020 h5         1 6CG       0.137100
     29 H5           0.8050    -1.4620    -1.5080 h2         1 6CG       0.069700
     30 H6          -1.3810    -2.4930     1.6720 h1         1 6CG       0.054700
     31 H7          -2.6960    -1.1030    -0.2800 h1         1 6CG       0.182700
     32 H8          -2.5980    -0.3200     2.0360 h1         1 6CG       0.039700
     33 H9          -0.9610     0.2780     1.8200 h1         1 6CG       0.039700
     34 H10          0.6630    -1.2510     1.5010 h1         1 6CG       0.070700
     35 H11          1.5150    -3.2770     1.2800 ho         1 6CG       0.403000
     36 H12         -0.7230    -3.9510    -0.1400 ho         1 6CG       0.382000
@<TRIPOS>BOND
     1     1     5 2   
     2     1     6 1   
     3     1     7 1   
     4     2     3 2   
     5     2     7 1   
     6     2    15 1   
     7     3     4 1   
     8     3    14 1   
     9     4     5 1   
    10     4    13 2   
    11     6    25 1   
    12     6    26 1   
    13     7    27 1   
    14     8    14 2   
    15     8    15 1   
    16     8    28 1   
    17     9    15 1   
    18     9    16 1   
    19     9    17 1   
    20     9    29 1   
    21    10    11 1   
    22    10    17 1   
    23    10    19 1   
    24    10    30 1   
    25    11    12 1   
    26    11    16 1   
    27    11    31 1   
    28    12    20 1   
    29    12    32 1   
    30    12    33 1   
    31    17    18 1   
    32    17    34 1   
    33    18    35 1   
    34    19    36 1   
    35    20    21 1   
    36    21    22 1   
    37    21    23 1   
    38    21    24 1   
@<TRIPOS>SUBSTRUCTURE
     1 6CG         1 TEMP              0 ****  ****    0 ROOT
