@<TRIPOS>MOLECULE
6CJ
   71    76     1     0     0
SMALL
bcc


@<TRIPOS>ATOM
      1 O3          -5.8800    -0.0620     0.4270 os         1 6CJ      -0.327900
      2 C4          -0.0930     0.8750    -0.3080 cc         1 6CJ       0.159200
      3 C5          -2.3040     1.8990    -0.0240 ca         1 6CJ      -0.149100
      4 C6          -3.4460     2.6640     0.1230 ca         1 6CJ      -0.045000
      5 N1          -1.0890    -0.0590    -0.1860 n          1 6CJ      -0.233200
      6 C7          -4.6730     2.0380     0.2700 ca         1 6CJ      -0.228000
      7 C8          -4.7460     0.6420     0.2710 ca         1 6CJ       0.156100
      8 C9          -7.1320     0.5950     0.6300 c6         1 6CJ       0.157100
      9 C10         -7.7340     1.0730    -0.6850 c6         1 6CJ      -0.091400
     10 C11         -9.1080     1.6950    -0.4480 c6         1 6CJ      -0.072900
     11 C12        -10.0420     0.7220     0.2640 c6         1 6CJ      -0.077400
     12 C13         -9.4230     0.2150     1.5620 c6         1 6CJ      -0.072900
     13 C14         -8.0490    -0.4030     1.3200 c6         1 6CJ      -0.091400
     14 C15         -3.5940    -0.1310     0.1170 ca         1 6CJ      -0.146000
     15 C17         -0.8420    -1.4510    -0.1970 c          1 6CJ       0.728700
     16 C16         -2.3720     0.5080    -0.0260 ca         1 6CJ       0.068600
     17 S           -0.6760     2.4970    -0.1930 ss         1 6CJ       0.111500
     18 C18          0.5390    -1.8270    -0.3570 cc         1 6CJ      -0.217400
     19 C20          0.9090    -3.2540    -0.3160 ca         1 6CJ      -0.007800
     20 C25          1.9980    -3.6580     0.4580 ca         1 6CJ      -0.113000
     21 C24          2.4130    -4.9830     0.4700 ca         1 6CJ      -0.136000
     22 C23          1.7390    -5.9290    -0.2890 ca         1 6CJ      -0.137000
     23 C22          0.6500    -5.5390    -1.0590 ca         1 6CJ      -0.136000
     24 C21          0.2360    -4.2150    -1.0720 ca         1 6CJ      -0.113000
     25 C19          1.4990    -0.8690    -0.5000 cd         1 6CJ       0.023000
     26 C3           1.2180     0.5090    -0.4980 cd         1 6CJ      -0.245200
     27 C2           2.2360     1.5710    -0.6210 c          1 6CJ       0.694300
     28 O2           1.9330     2.7350    -0.3570 o          1 6CJ      -0.635100
     29 N            3.4660     1.1970    -0.9820 ns         1 6CJ      -0.503900
     30 C1           4.5800     2.1080    -1.0650 c3         1 6CJ      -0.037300
     31 C            4.6360     2.8950    -2.4000 c          1 6CJ       0.928600
     32 O1           5.5240     3.7680    -2.4490 o          1 6CJ      -0.820800
     33 O            3.8230     2.5890    -3.2860 o          1 6CJ      -0.820800
     34 C26          5.8800     1.3210    -0.8400 c3         1 6CJ      -0.037100
     35 C27          5.8700     0.5480     0.4490 ca         1 6CJ      -0.082300
     36 C32          6.0760     1.1870     1.6700 ca         1 6CJ      -0.096500
     37 C31          6.0220     0.4970     2.8700 ca         1 6CJ      -0.195000
     38 C30          5.7530    -0.8710     2.8740 ca         1 6CJ       0.112100
     39 C29          5.5460    -1.5270     1.6660 ca         1 6CJ      -0.195000
     40 C28          5.6070    -0.8170     0.4740 ca         1 6CJ      -0.096500
     41 H3          -6.9930     1.4500     1.3060 h1         1 6CJ       0.042700
     42 H4           5.5330    -2.4410     3.9430 ho         1 6CJ       0.415000
     43 H5          -7.0770     1.7940    -1.1780 hc         1 6CJ       0.055450
     44 H6          -7.8270     0.2180    -1.3630 hc         1 6CJ       0.055450
     45 H7          -8.9980     2.6030     0.1540 hc         1 6CJ       0.039450
     46 H8          -9.5390     2.0090    -1.4010 hc         1 6CJ       0.039450
     47 H9         -11.0030     1.2020     0.4670 hc         1 6CJ       0.039200
     48 H10        -10.2490    -0.1290    -0.3930 hc         1 6CJ       0.039200
     49 H11         -9.3260     1.0460     2.2690 hc         1 6CJ       0.039450
     50 H12        -10.0760    -0.5200     2.0370 hc         1 6CJ       0.039450
     51 H13         -8.1500    -1.2960     0.6950 hc         1 6CJ       0.055450
     52 H14         -7.6030    -0.7200     2.2660 hc         1 6CJ       0.055450
     53 H15         -3.6820    -1.2040     0.1210 ha         1 6CJ       0.185000
     54 H16          2.5180    -2.9320     1.0730 ha         1 6CJ       0.137500
     55 H17          3.2590    -5.2740     1.0790 ha         1 6CJ       0.122000
     56 H18          2.0580    -6.9630    -0.2810 ha         1 6CJ       0.120000
     57 H19          0.1230    -6.2680    -1.6610 ha         1 6CJ       0.122000
     58 H20         -0.6040    -3.9300    -1.6900 ha         1 6CJ       0.137500
     59 H21          2.5230    -1.2040    -0.6080 ha         1 6CJ       0.142000
     60 H23          3.5960     0.2830    -1.3820 hn         1 6CJ       0.300500
     61 H24          4.4780     2.8320    -0.2520 h1         1 6CJ       0.065700
     62 H26          6.0370     0.6340    -1.6780 hc         1 6CJ       0.060700
     63 H27          6.7070     2.0320    -0.8560 hc         1 6CJ       0.060700
     64 H28          6.2860     2.2510     1.6900 ha         1 6CJ       0.132000
     65 H29          6.1920     1.0130     3.8060 ha         1 6CJ       0.126500
     66 H30          5.3460    -2.5930     1.6480 ha         1 6CJ       0.126500
     67 H31          5.4500    -1.3490    -0.4580 ha         1 6CJ       0.132000
     68 H1          -3.3890     3.7440     0.1240 ha         1 6CJ       0.139000
     69 O4          -1.7660    -2.2340    -0.0570 o          1 6CJ      -0.630500
     70 O5           5.7100    -1.5020     4.0680 oh         1 6CJ      -0.507100
     71 H2          -5.5520     2.6550     0.3850 ha         1 6CJ       0.133000
@<TRIPOS>BOND
     1     1     7 1   
     2     1     8 1   
     3     2     5 1   
     4     2    17 1   
     5     2    26 2   
     6     3     4 ar  
     7     3    16 ar  
     8     3    17 1   
     9     4     6 ar  
    10     4    68 1   
    11     5    15 1   
    12     5    16 1   
    13     6     7 ar  
    14     6    71 1   
    15     7    14 ar  
    16     8     9 1   
    17     8    13 1   
    18     8    41 1   
    19     9    10 1   
    20     9    43 1   
    21     9    44 1   
    22    10    11 1   
    23    10    45 1   
    24    10    46 1   
    25    11    12 1   
    26    11    47 1   
    27    11    48 1   
    28    12    13 1   
    29    12    49 1   
    30    12    50 1   
    31    13    51 1   
    32    13    52 1   
    33    14    16 ar  
    34    14    53 1   
    35    15    18 1   
    36    15    69 2   
    37    18    19 1   
    38    18    25 2   
    39    19    20 ar  
    40    19    24 ar  
    41    20    21 ar  
    42    20    54 1   
    43    21    22 ar  
    44    21    55 1   
    45    22    23 ar  
    46    22    56 1   
    47    23    24 ar  
    48    23    57 1   
    49    24    58 1   
    50    25    26 1   
    51    25    59 1   
    52    26    27 1   
    53    27    28 2   
    54    27    29 1   
    55    29    30 1   
    56    29    60 1   
    57    30    31 1   
    58    30    34 1   
    59    30    61 1   
    60    31    32 1   
    61    31    33 1   
    62    34    35 1   
    63    34    62 1   
    64    34    63 1   
    65    35    36 ar  
    66    35    40 ar  
    67    36    37 ar  
    68    36    64 1   
    69    37    38 ar  
    70    37    65 1   
    71    38    39 ar  
    72    38    70 1   
    73    39    40 ar  
    74    39    66 1   
    75    40    67 1   
    76    42    70 1   
@<TRIPOS>SUBSTRUCTURE
     1 6CJ         1 TEMP              0 ****  ****    0 ROOT
