@<TRIPOS>MOLECULE
6CJ
   71    76     1     0     0
SMALL
No Charge or Current Charge


@<TRIPOS>ATOM
      1 O3          -5.5530    -0.4030     1.0040 os         1 6CJ      -0.351100
      2 C4           0.2390     0.3210    -0.4510 cc         1 6CJ       0.159200
      3 C5          -1.8090     1.3640     0.4320 ca         1 6CJ      -0.276000
      4 C6          -2.8430     2.1600     0.9440 ca         1 6CJ      -0.027000
      5 N1          -0.8130    -0.5860    -0.3790 n          1 6CJ      -0.166200
      6 C7          -4.1090     1.5860     1.1450 ca         1 6CJ      -0.210000
      7 C8          -4.3330     0.2240     0.8250 ca         1 6CJ       0.156100
      8 C9          -6.7670     0.3300     1.2760 c6         1 6CJ       0.180300
      9 C10         -7.2350     1.1220     0.0220 c6         1 6CJ      -0.091400
     10 C11         -8.5770     1.8510     0.2840 c6         1 6CJ      -0.072900
     11 C12         -9.6730     0.8590     0.7460 c6         1 6CJ      -0.077400
     12 C13         -9.2130     0.0570     1.9880 c6         1 6CJ      -0.072900
     13 C14         -7.8680    -0.6660     1.7200 c6         1 6CJ      -0.091400
     14 C15         -3.2770    -0.5570     0.3220 ca         1 6CJ      -0.128000
     15 C17         -0.6550    -1.9310    -0.7550 c          1 6CJ       0.586200
     16 C16         -2.0070     0.0220     0.1260 ca         1 6CJ       0.068600
     17 S           -0.1550     1.9610     0.1230 ss         1 6CJ       0.238400
     18 C18          0.7040    -2.2730    -1.2230 cc         1 6CJ      -0.217400
     19 C20          1.0530    -3.6260    -1.6590 ca         1 6CJ      -0.007800
     20 C25          2.0750    -4.3450    -1.0070 ca         1 6CJ      -0.095000
     21 C24          2.4110    -5.6430    -1.4300 ca         1 6CJ      -0.118000
     22 C23          1.7270    -6.2310    -2.5080 ca         1 6CJ      -0.119000
     23 C22          0.7060    -5.5200    -3.1600 ca         1 6CJ      -0.118000
     24 C21          0.3710    -4.2220    -2.7370 ca         1 6CJ      -0.095000
     25 C19          1.7400    -1.3590    -1.2940 cd         1 6CJ      -0.027000
     26 C3           1.5370     0.0250    -0.8960 cd         1 6CJ      -0.245200
     27 C2           2.6500     1.0430    -0.9600 c          1 6CJ       0.627300
     28 O2           2.5440     2.2370    -0.7230 o          1 6CJ      -0.635100
     29 N            3.8710     0.5130    -1.3300 ns         1 6CJ      -0.436900
     30 C1           5.1670     1.2370    -1.2990 c3         1 6CJ      -0.037300
     31 C            6.0510     0.8270    -2.5140 c          1 6CJ       0.718000
     32 O1           6.5230     1.7150    -3.2090 o          1 6CJ      -0.715500
     33 O            6.1650    -0.3640    -2.7760 o          1 6CJ      -0.715500
     34 C26          5.9130     1.0110     0.0410 c3         1 6CJ      -0.037100
     35 C27          5.0670     1.3380     1.2690 ca         1 6CJ      -0.082300
     36 C32          4.9530     2.6680     1.7170 ca         1 6CJ      -0.078500
     37 C31          4.1580     2.9710     2.8370 ca         1 6CJ      -0.177000
     38 C30          3.4740     1.9490     3.5110 ca         1 6CJ       0.112100
     39 C29          3.5830     0.6210     3.0700 ca         1 6CJ      -0.177000
     40 C28          4.3790     0.3150     1.9530 ca         1 6CJ      -0.078500
     41 H3          -6.5900     1.0210     2.1130 h1         1 6CJ       0.042700
     42 H4           2.3130     1.4200     4.9360 ho         1 6CJ       0.454000
     43 H5          -6.4760     1.8570    -0.2760 hc         1 6CJ       0.055450
     44 H6          -7.3490     0.4340    -0.8260 hc         1 6CJ       0.055450
     45 H7          -8.4340     2.6270     1.0490 hc         1 6CJ       0.039450
     46 H8          -8.9040     2.3690    -0.6280 hc         1 6CJ       0.039450
     47 H9         -10.5980     1.4050     0.9760 hc         1 6CJ       0.039200
     48 H10         -9.9140     0.1670    -0.0730 hc         1 6CJ       0.039200
     49 H11         -9.1050     0.7340     2.8470 hc         1 6CJ       0.039450
     50 H12         -9.9830    -0.6770     2.2640 hc         1 6CJ       0.039450
     51 H13         -8.0090    -1.4330     0.9460 hc         1 6CJ       0.055450
     52 H14         -7.5460    -1.1930     2.6280 hc         1 6CJ       0.055450
     53 H15         -3.4760    -1.5960     0.0910 ha         1 6CJ       0.167000
     54 H16          2.6050    -3.9000    -0.1680 ha         1 6CJ       0.119500
     55 H17          3.2000    -6.1930    -0.9220 ha         1 6CJ       0.104000
     56 H18          1.9870    -7.2350    -2.8350 ha         1 6CJ       0.102000
     57 H19          0.1750    -5.9730    -3.9950 ha         1 6CJ       0.104000
     58 H20         -0.4190    -3.6760    -3.2480 ha         1 6CJ       0.119500
     59 H21          2.6990    -1.7070    -1.6700 ha         1 6CJ       0.192000
     60 H23          3.8980    -0.4710    -1.5540 hn         1 6CJ       0.300500
     61 H24          4.9670     2.3110    -1.4020 h1         1 6CJ       0.065700
     62 H26          6.2500    -0.0320     0.0900 hc         1 6CJ       0.060700
     63 H27          6.8260     1.6200     0.0430 hc         1 6CJ       0.060700
     64 H28          5.4740     3.4670     1.1940 ha         1 6CJ       0.114000
     65 H29          4.0720     4.0000     3.1780 ha         1 6CJ       0.108500
     66 H30          3.0540    -0.1770     3.5860 ha         1 6CJ       0.108500
     67 H31          4.4550    -0.7160     1.6130 ha         1 6CJ       0.114000
     68 H1          -2.6690     3.2080     1.1840 ha         1 6CJ       0.121000
     69 O4          -1.5530    -2.7620    -0.6960 o          1 6CJ      -0.555000
     70 O5           2.7040     2.2510     4.5940 oh         1 6CJ      -0.546100
     71 H2          -4.8970     2.2120     1.5490 ha         1 6CJ       0.115000
@<TRIPOS>BOND
     1     1     7 1   
     2     1     8 1   
     3     2     5 1   
     4     2    17 1   
     5     2    26 2   
     6     3     4 ar  
     7     3    16 ar  
     8     3    17 1   
     9     4     6 ar  
    10     4    68 1   
    11     5    15 1   
    12     5    16 1   
    13     6     7 ar  
    14     6    71 1   
    15     7    14 ar  
    16     8     9 1   
    17     8    13 1   
    18     8    41 1   
    19     9    10 1   
    20     9    43 1   
    21     9    44 1   
    22    10    11 1   
    23    10    45 1   
    24    10    46 1   
    25    11    12 1   
    26    11    47 1   
    27    11    48 1   
    28    12    13 1   
    29    12    49 1   
    30    12    50 1   
    31    13    51 1   
    32    13    52 1   
    33    14    16 ar  
    34    14    53 1   
    35    15    18 1   
    36    15    69 2   
    37    18    19 1   
    38    18    25 2   
    39    19    20 ar  
    40    19    24 ar  
    41    20    21 ar  
    42    20    54 1   
    43    21    22 ar  
    44    21    55 1   
    45    22    23 ar  
    46    22    56 1   
    47    23    24 ar  
    48    23    57 1   
    49    24    58 1   
    50    25    26 1   
    51    25    59 1   
    52    26    27 1   
    53    27    28 2   
    54    27    29 1   
    55    29    30 1   
    56    29    60 1   
    57    30    31 1   
    58    30    34 1   
    59    30    61 1   
    60    31    32 1   
    61    31    33 1   
    62    34    35 1   
    63    34    62 1   
    64    34    63 1   
    65    35    36 ar  
    66    35    40 ar  
    67    36    37 ar  
    68    36    64 1   
    69    37    38 ar  
    70    37    65 1   
    71    38    39 ar  
    72    38    70 1   
    73    39    40 ar  
    74    39    66 1   
    75    40    67 1   
    76    42    70 1   
@<TRIPOS>SUBSTRUCTURE
     1 6CJ         1 TEMP              0 ****  ****    0 ROOT
