@<TRIPOS>MOLECULE
6CK
   61    64     1     0     0
SMALL
abcg2


@<TRIPOS>ATOM
      1 N01        -54.2290     9.9040    46.1160 nv         1 6CK      -1.057200
      2 C02        -55.2230     8.9910    46.1460 cc         1 6CK       0.694800
      3 N03        -55.4680     8.3200    47.2540 nd         1 6CK      -0.679100
      4 C04        -56.5160     7.4830    47.1510 cd         1 6CK       0.122400
      5 N05        -57.0040     6.6620    48.1410 na         1 6CK      -0.178500
      6 C06        -58.0680     5.9710    47.5890 cd         1 6CK       0.473400
      7 N07        -58.2890     6.3020    46.3440 nc         1 6CK      -0.617000
      8 C08        -57.3260     7.2520    46.0450 cc         1 6CK       0.116500
      9 C09        -57.0660     7.9710    44.8430 c          1 6CK       0.518500
     10 O10        -57.6530     7.9200    43.7640 o          1 6CK      -0.540000
     11 N11        -55.9650     8.8370    45.0050 ns         1 6CK      -0.458400
     12 C12        -56.4300     6.4840    49.4500 c5         1 6CK       0.321300
     13 O13        -55.7770     5.2260    49.5070 os         1 6CK      -0.447000
     14 C14        -55.9250     4.6380    50.8230 c5         1 6CK       0.163300
     15 C15        -56.5820     3.2820    50.7040 c3         1 6CK       0.225600
     16 O16        -57.9690     3.4450    50.3860 os         1 6CK      -0.627400
     17 P17        -58.8340     2.1980    49.8270 p5         1 6CK       1.497800
     18 O18        -60.2730     2.5510    50.0630 o          1 6CK      -0.839500
     19 O19        -58.2910     0.9110    50.3400 o          1 6CK      -0.839500
     20 O20        -58.4990     2.3610    48.2380 os         1 6CK      -0.736800
     21 P21        -59.2330     1.7130    46.9340 p5         1 6CK       1.473800
     22 O22        -59.5630     0.2830    47.1790 o          1 6CK      -0.833500
     23 O23        -58.4270     2.1470    45.7600 o          1 6CK      -0.833500
     24 O24        -60.6780     2.4900    46.9390 os         1 6CK      -0.570400
     25 C25        -60.7920     3.8210    46.5410 c6         1 6CK       0.432300
     26 O26        -61.4710     3.8080    45.2810 os         1 6CK      -0.444000
     27 C27        -61.6550     5.1150    44.7760 c6         1 6CK       0.122300
     28 C28        -62.5750     5.9540    45.6610 c6         1 6CK       0.148300
     29 O29        -63.8790     5.3950    45.6930 oh         1 6CK      -0.712000
     30 C30        -61.9460     5.9880    47.0510 c6         1 6CK       0.125300
     31 O31        -62.8620     6.6520    47.9170 oh         1 6CK      -0.706000
     32 C32        -61.6260     4.5900    47.5670 c6         1 6CK       0.123300
     33 O33        -60.9410     4.7650    48.7880 oh         1 6CK      -0.841000
     34 C34        -62.1310     4.9610    43.3390 c3         1 6CK       0.302000
     35 F35        -62.4260     6.1630    42.8030 f          1 6CK      -0.119667
     36 F36        -63.2170     4.1820    43.2080 f          1 6CK      -0.119667
     37 F37        -61.1630     4.4120    42.5730 f          1 6CK      -0.119667
     38 C38        -56.6930     5.6590    51.6610 c5         1 6CK       0.121300
     39 O39        -55.7600     6.4820    52.3500 oh         1 6CK      -0.742000
     40 C40        -57.4390     6.4760    50.5980 c5         1 6CK       0.087300
     41 O41        -57.7220     7.8050    50.9960 oh         1 6CK      -0.733000
     42 H1         -53.5850     9.9000    46.8910 hn         1 6CK       0.485000
     43 H2         -53.8760    10.2380    45.2340 hn         1 6CK       0.485000
     44 H3         -58.6380     5.2550    48.1590 h5         1 6CK       0.115100
     45 H4         -55.7270     9.3860    44.1890 hn         1 6CK       0.305500
     46 H5         -55.7180     7.3010    49.5870 h2         1 6CK       0.083700
     47 H6         -54.9290     4.4950    51.2460 h1         1 6CK       0.058700
     48 H7         -56.0740     2.7080    49.9270 h1         1 6CK       0.045700
     49 H8         -56.4850     2.7490    51.6520 h1         1 6CK       0.045700
     50 H11        -59.8120     4.2820    46.4030 h2         1 6CK       0.058700
     51 H12        -60.6960     5.6440    44.7110 h1         1 6CK       0.087700
     52 H13        -62.6060     6.9740    45.2640 h1         1 6CK       0.036700
     53 H14        -64.3120     5.7550    46.4810 ho         1 6CK       0.511000
     54 H15        -61.0090     6.5520    46.9880 h1         1 6CK       0.056700
     55 H16        -62.5810     6.4690    48.8240 ho         1 6CK       0.468000
     56 H17        -62.5580     4.0330    47.7120 h1         1 6CK       0.061700
     57 H18        -60.7710     3.8910    49.2320 ho         1 6CK       0.611000
     58 H19        -57.3790     5.1780    52.3630 h1         1 6CK       0.078700
     59 H20        -56.1930     7.3360    52.4970 ho         1 6CK       0.507000
     60 H21        -58.3450     5.9480    50.3060 h1         1 6CK       0.114700
     61 H22        -58.6060     7.8340    51.3830 ho         1 6CK       0.511000
@<TRIPOS>BOND
     1     1     2 1   
     2     1    42 1   
     3     1    43 1   
     4     2     3 2   
     5     2    11 1   
     6     3     4 1   
     7     4     5 1   
     8     4     8 2   
     9     5     6 1   
    10     5    12 1   
    11     6     7 2   
    12     6    44 1   
    13     7     8 1   
    14     8     9 1   
    15     9    10 2   
    16     9    11 1   
    17    11    45 1   
    18    12    13 1   
    19    12    40 1   
    20    12    46 1   
    21    13    14 1   
    22    14    15 1   
    23    14    38 1   
    24    14    47 1   
    25    15    16 1   
    26    15    48 1   
    27    15    49 1   
    28    16    17 1   
    29    17    18 1   
    30    17    19 1   
    31    17    20 1   
    32    20    21 1   
    33    21    22 1   
    34    21    23 1   
    35    21    24 1   
    36    24    25 1   
    37    25    26 1   
    38    25    32 1   
    39    25    50 1   
    40    26    27 1   
    41    27    28 1   
    42    27    34 1   
    43    27    51 1   
    44    28    29 1   
    45    28    30 1   
    46    28    52 1   
    47    29    53 1   
    48    30    31 1   
    49    30    32 1   
    50    30    54 1   
    51    31    55 1   
    52    32    33 1   
    53    32    56 1   
    54    33    57 1   
    55    34    35 1   
    56    34    36 1   
    57    34    37 1   
    58    38    39 1   
    59    38    40 1   
    60    38    58 1   
    61    39    59 1   
    62    40    41 1   
    63    40    60 1   
    64    41    61 1   
@<TRIPOS>SUBSTRUCTURE
     1 6CK         1 TEMP              0 ****  ****    0 ROOT
