@<TRIPOS>MOLECULE
6CK
   61    64     1     0     0
SMALL
No Charge or Current Charge


@<TRIPOS>ATOM
      1 N01        -57.3850    10.3750    47.2010 nv         1 6CK      -1.057200
      2 C02        -57.3920     9.1170    46.8020 cc         1 6CK       0.694800
      3 N03        -56.9390     8.2230    47.6530 nd         1 6CK      -0.679100
      4 C04        -56.9700     6.9250    47.1370 cd         1 6CK       0.122400
      5 N05        -56.5840     5.7440    47.7290 na         1 6CK      -0.178500
      6 C06        -56.8310     4.7430    46.7920 cd         1 6CK       0.473400
      7 N07        -57.3410     5.2550    45.6670 nc         1 6CK      -0.617000
      8 C08        -57.4260     6.6090    45.8860 cc         1 6CK       0.116500
      9 C09        -57.9360     7.6670    44.9810 c          1 6CK       0.518500
     10 O10        -58.3880     7.5010    43.8570 o          1 6CK      -0.540000
     11 N11        -57.8670     8.8980    45.5560 ns         1 6CK      -0.458400
     12 C12        -56.0090     5.5760    49.0590 c5         1 6CK       0.321300
     13 O13        -55.8900     4.1760    49.3840 os         1 6CK      -0.447000
     14 C14        -55.9420     4.0210    50.8310 c5         1 6CK       0.163300
     15 C15        -57.0410     2.9900    51.2190 c3         1 6CK       0.225600
     16 O16        -58.3420     3.5280    50.9300 os         1 6CK      -0.627400
     17 P17        -59.4350     2.6100    50.1930 p5         1 6CK       1.497800
     18 O18        -60.7380     3.3350    50.2250 o          1 6CK      -0.839500
     19 O19        -59.4720     1.2690    50.8430 o          1 6CK      -0.839500
     20 O20        -58.7700     2.6570    48.7690 os         1 6CK      -0.736800
     21 P21        -59.5720     1.8980    47.6450 p5         1 6CK       1.473800
     22 O22        -59.9790     0.5150    48.0230 o          1 6CK      -0.833500
     23 O23        -58.7540     1.8650    46.3990 o          1 6CK      -0.833500
     24 O24        -60.8410     2.8630    47.4710 os         1 6CK      -0.570400
     25 C25        -60.6290     4.0940    46.7940 c6         1 6CK       0.432300
     26 O26        -61.1830     3.9820    45.4680 os         1 6CK      -0.444000
     27 C27        -60.9380     5.1530    44.6410 c6         1 6CK       0.122300
     28 C28        -61.6200     6.4220    45.2610 c6         1 6CK       0.148300
     29 O29        -63.0570     6.3470    45.2760 oh         1 6CK      -0.712000
     30 C30        -61.1330     6.5910    46.7320 c6         1 6CK       0.125300
     31 O31        -61.8380     7.6620    47.3840 oh         1 6CK      -0.706000
     32 C32        -61.3290     5.2810    47.5540 c6         1 6CK       0.123300
     33 O33        -60.8670     5.4950    48.9160 oh         1 6CK      -0.841000
     34 C34        -61.3680     4.8430    43.1680 c3         1 6CK       0.302000
     35 F35        -61.2490     5.9330    42.3740 f          1 6CK      -0.119667
     36 F36        -62.6500     4.4140    43.0730 f          1 6CK      -0.119667
     37 F37        -60.5890     3.8780    42.6260 f          1 6CK      -0.119667
     38 C38        -56.1530     5.4600    51.4290 c5         1 6CK       0.121300
     39 O39        -54.9220     6.1300    51.7450 oh         1 6CK      -0.742000
     40 C40        -56.8380     6.1800    50.2350 c5         1 6CK       0.087300
     41 O41        -56.7390     7.6180    50.3440 oh         1 6CK      -0.733000
     42 H1         -56.8370    10.5390    48.0360 hn         1 6CK       0.485000
     43 H2         -57.3160    11.0890    46.4870 hn         1 6CK       0.485000
     44 H3         -56.6210     3.6980    46.9920 h5         1 6CK       0.115100
     45 H4         -58.2110     9.6740    45.0140 hn         1 6CK       0.305500
     46 H5         -55.0100     6.0300    49.0260 h2         1 6CK       0.083700
     47 H6         -54.9790     3.6100    51.1640 h1         1 6CK       0.058700
     48 H7         -56.8520     2.0570    50.6710 h1         1 6CK       0.045700
     49 H8         -56.9550     2.7700    52.2910 h1         1 6CK       0.045700
     50 H11        -59.5530     4.3130    46.7300 h2         1 6CK       0.058700
     51 H12        -59.8540     5.3270    44.6100 h1         1 6CK       0.087700
     52 H13        -61.3010     7.3060    44.6890 h1         1 6CK       0.036700
     53 H14        -63.3110     6.9610    46.0060 ho         1 6CK       0.511000
     54 H15        -60.0570     6.8180    46.7120 h1         1 6CK       0.056700
     55 H16        -61.6940     7.4780    48.3440 ho         1 6CK       0.468000
     56 H17        -62.4040     5.0470    47.5730 h1         1 6CK       0.061700
     57 H18        -60.8970     4.5920    49.4000 ho         1 6CK       0.611000
     58 H19        -56.8140     5.4360    52.3080 h1         1 6CK       0.078700
     59 H20        -55.1160     7.0740    51.5190 ho         1 6CK       0.507000
     60 H21        -57.8890     5.8680    50.1420 h1         1 6CK       0.114700
     61 H22        -56.8660     7.9660    49.4140 ho         1 6CK       0.511000
@<TRIPOS>BOND
     1     1     2 1   
     2     1    42 1   
     3     1    43 1   
     4     2     3 2   
     5     2    11 1   
     6     3     4 1   
     7     4     5 1   
     8     4     8 2   
     9     5     6 1   
    10     5    12 1   
    11     6     7 2   
    12     6    44 1   
    13     7     8 1   
    14     8     9 1   
    15     9    10 2   
    16     9    11 1   
    17    11    45 1   
    18    12    13 1   
    19    12    40 1   
    20    12    46 1   
    21    13    14 1   
    22    14    15 1   
    23    14    38 1   
    24    14    47 1   
    25    15    16 1   
    26    15    48 1   
    27    15    49 1   
    28    16    17 1   
    29    17    18 1   
    30    17    19 1   
    31    17    20 1   
    32    20    21 1   
    33    21    22 1   
    34    21    23 1   
    35    21    24 1   
    36    24    25 1   
    37    25    26 1   
    38    25    32 1   
    39    25    50 1   
    40    26    27 1   
    41    27    28 1   
    42    27    34 1   
    43    27    51 1   
    44    28    29 1   
    45    28    30 1   
    46    28    52 1   
    47    29    53 1   
    48    30    31 1   
    49    30    32 1   
    50    30    54 1   
    51    31    55 1   
    52    32    33 1   
    53    32    56 1   
    54    33    57 1   
    55    34    35 1   
    56    34    36 1   
    57    34    37 1   
    58    38    39 1   
    59    38    40 1   
    60    38    58 1   
    61    39    59 1   
    62    40    41 1   
    63    40    60 1   
    64    41    61 1   
@<TRIPOS>SUBSTRUCTURE
     1 6CK         1 TEMP              0 ****  ****    0 ROOT
