@<TRIPOS>MOLECULE
6CM
   75    74     1     0     0
SMALL
bcc


@<TRIPOS>ATOM
      1 O19         -3.9530    -0.4760    -1.3410 o          1 6CM      -0.607100
      2 C19         -4.8140    -0.4800    -0.4720 c          1 6CM       0.667100
      3 N2          -5.5860     0.5880    -0.1950 ns         1 6CM      -0.571900
      4 C2          -5.4390     1.8890    -0.8080 c3         1 6CM       0.080700
      5 C1          -6.7430     2.3080    -1.4690 c3         1 6CM       0.129400
      6 O1          -7.7420     2.4010    -0.4790 oh         1 6CM      -0.605800
      7 C3          -4.9280     2.9190     0.2290 c3         1 6CM       0.170300
      8 C4          -3.6330     2.4660     0.8410 c2         1 6CM      -0.211200
      9 C5          -2.4980     3.1580     0.8820 c2         1 6CM      -0.147200
     10 C6          -1.2360     2.6360     1.4920 c3         1 6CM      -0.044200
     11 C7          -0.0950     2.5020     0.4830 c3         1 6CM      -0.072400
     12 C8           1.1490     1.8770     1.1010 c3         1 6CM      -0.074400
     13 C9           2.3180     1.7440     0.1340 c3         1 6CM      -0.073400
     14 C10          3.5170     1.0430     0.7610 c3         1 6CM      -0.075400
     15 C11          4.7090     0.8990    -0.1760 c3         1 6CM      -0.073400
     16 C12          5.8780     0.1620     0.4680 c3         1 6CM      -0.075400
     17 C13          7.0830     0.0030    -0.4490 c3         1 6CM      -0.073400
     18 C14          8.2330    -0.7510     0.2100 c3         1 6CM      -0.074400
     19 C15          9.4480    -0.9200    -0.6930 c3         1 6CM      -0.074400
     20 C16         10.5870    -1.6800    -0.0250 c3         1 6CM      -0.076400
     21 C17         11.8080    -1.8530    -0.9190 c3         1 6CM      -0.074400
     22 C18         12.9350    -2.6160    -0.2350 c3         1 6CM      -0.088100
     23 O3          -4.8610     4.2050    -0.3320 oh         1 6CM      -0.582800
     24 C20         -5.0640    -1.6890     0.4040 c3         1 6CM      -0.157400
     25 C21         -4.9070    -3.0140    -0.3300 c3         1 6CM      -0.067400
     26 C22         -5.0150    -4.2080     0.6090 c3         1 6CM      -0.077400
     27 C23         -4.8830    -5.5450    -0.1080 c3         1 6CM      -0.074400
     28 C24         -4.9460    -6.7310     0.8450 c3         1 6CM      -0.089100
     29 HN2         -6.2860     0.4950     0.5240 hn         1 6CM       0.321500
     30 H2          -4.6870     1.7970    -1.5950 h1         1 6CM       0.085700
     31 H11         -6.5990     3.2570    -1.9960 h1         1 6CM       0.033200
     32 H12         -6.9930     1.5550    -2.2260 h1         1 6CM       0.033200
     33 HO1         -8.5900     2.5240    -0.9130 ho         1 6CM       0.408000
     34 H3          -5.6740     2.9850     1.0300 h1         1 6CM       0.091700
     35 H4          -3.6540     1.4830     1.3000 ha         1 6CM       0.124000
     36 H5          -2.4460     4.1550     0.4510 ha         1 6CM       0.122000
     37 H61         -1.4290     1.6630     1.9560 hc         1 6CM       0.044200
     38 H62         -0.9130     3.3040     2.2990 hc         1 6CM       0.044200
     39 H71          0.1480     3.4870     0.0720 hc         1 6CM       0.042200
     40 H72         -0.4300     1.8900    -0.3610 hc         1 6CM       0.042200
     41 H81          0.8910     0.8860     1.4900 hc         1 6CM       0.036700
     42 H82          1.4630     2.4690     1.9680 hc         1 6CM       0.036700
     43 H91          2.6170     2.7360    -0.2200 hc         1 6CM       0.039200
     44 H92          1.9980     1.1870    -0.7540 hc         1 6CM       0.039200
     45 H101         3.2090     0.0500     1.1060 hc         1 6CM       0.036200
     46 H102         3.8270     1.5900     1.6590 hc         1 6CM       0.036200
     47 H111         5.0390     1.8900    -0.5040 hc         1 6CM       0.038200
     48 H112         4.4000     0.3660    -1.0820 hc         1 6CM       0.038200
     49 H121         5.5410    -0.8280     0.7960 hc         1 6CM       0.036700
     50 H122         6.1820     0.6930     1.3770 hc         1 6CM       0.036700
     51 H131         7.4320     0.9910    -0.7690 hc         1 6CM       0.037700
     52 H132         6.7810    -0.5230    -1.3610 hc         1 6CM       0.037700
     53 H141         7.8800    -1.7380     0.5290 hc         1 6CM       0.036700
     54 H142         8.5310    -0.2270     1.1250 hc         1 6CM       0.036700
     55 H151         9.8060     0.0660    -1.0100 hc         1 6CM       0.036700
     56 H152         9.1510    -1.4420    -1.6090 hc         1 6CM       0.036700
     57 H161        10.2270    -2.6660     0.2910 hc         1 6CM       0.036700
     58 H162        10.8800    -1.1580     0.8930 hc         1 6CM       0.036700
     59 H171        12.1690    -0.8680    -1.2320 hc         1 6CM       0.036700
     60 H172        11.5140    -2.3730    -1.8360 hc         1 6CM       0.036700
     61 H181        13.2570    -2.1050     0.6740 hc         1 6CM       0.031367
     62 H182        12.6140    -3.6200     0.0490 hc         1 6CM       0.031367
     63 H183        13.8050    -2.7180    -0.8840 hc         1 6CM       0.031367
     64 HO3         -4.2130     4.1950    -1.0450 ho         1 6CM       0.400000
     65 H201        -4.3360    -1.6400     1.2230 hc         1 6CM       0.055700
     66 H202        -6.0490    -1.6310     0.8750 hc         1 6CM       0.055700
     67 H211        -5.6700    -3.0920    -1.1110 hc         1 6CM       0.053700
     68 H212        -3.9410    -3.0380    -0.8390 hc         1 6CM       0.053700
     69 H221        -4.2390    -4.1310     1.3790 hc         1 6CM       0.036200
     70 H222        -5.9720    -4.1760     1.1410 hc         1 6CM       0.036200
     71 H231        -5.6740    -5.6340    -0.8590 hc         1 6CM       0.039200
     72 H232        -3.9380    -5.5680    -0.6610 hc         1 6CM       0.039200
     73 H241        -4.1350    -6.6910     1.5750 hc         1 6CM       0.031367
     74 H242        -5.8870    -6.7420     1.3980 hc         1 6CM       0.031367
     75 H243        -4.8660    -7.6800     0.3130 hc         1 6CM       0.031367
@<TRIPOS>BOND
     1     1     2 2   
     2     2     3 1   
     3     2    24 1   
     4     3     4 1   
     5     3    29 1   
     6     4     5 1   
     7     4     7 1   
     8     4    30 1   
     9     5     6 1   
    10     5    31 1   
    11     5    32 1   
    12     6    33 1   
    13     7     8 1   
    14     7    23 1   
    15     7    34 1   
    16     8     9 2   
    17     8    35 1   
    18     9    10 1   
    19     9    36 1   
    20    10    11 1   
    21    10    37 1   
    22    10    38 1   
    23    11    12 1   
    24    11    39 1   
    25    11    40 1   
    26    12    13 1   
    27    12    41 1   
    28    12    42 1   
    29    13    14 1   
    30    13    43 1   
    31    13    44 1   
    32    14    15 1   
    33    14    45 1   
    34    14    46 1   
    35    15    16 1   
    36    15    47 1   
    37    15    48 1   
    38    16    17 1   
    39    16    49 1   
    40    16    50 1   
    41    17    18 1   
    42    17    51 1   
    43    17    52 1   
    44    18    19 1   
    45    18    53 1   
    46    18    54 1   
    47    19    20 1   
    48    19    55 1   
    49    19    56 1   
    50    20    21 1   
    51    20    57 1   
    52    20    58 1   
    53    21    22 1   
    54    21    59 1   
    55    21    60 1   
    56    22    61 1   
    57    22    62 1   
    58    22    63 1   
    59    23    64 1   
    60    24    25 1   
    61    24    65 1   
    62    24    66 1   
    63    25    26 1   
    64    25    67 1   
    65    25    68 1   
    66    26    27 1   
    67    26    69 1   
    68    26    70 1   
    69    27    28 1   
    70    27    71 1   
    71    27    72 1   
    72    28    73 1   
    73    28    74 1   
    74    28    75 1   
@<TRIPOS>SUBSTRUCTURE
     1 6CM         1 TEMP              0 ****  ****    0 ROOT
