@<TRIPOS>MOLECULE
6CM
   75    74     1     0     0
SMALL
No Charge or Current Charge


@<TRIPOS>ATOM
      1 O19         -3.5180     0.8440    -1.5990 o          1 6CM      -0.607100
      2 C19         -3.8520     0.2650    -0.5750 c          1 6CM       0.600100
      3 N2          -4.9060     0.6840     0.2050 ns         1 6CM      -0.504900
      4 C2          -5.7200     1.8920    -0.0400 c3         1 6CM       0.080700
      5 C1          -7.2130     1.5140    -0.2430 c3         1 6CM       0.152600
      6 O1          -7.7240     0.7870     0.8910 oh         1 6CM      -0.668000
      7 C3          -5.5110     2.9650     1.0730 c3         1 6CM       0.193500
      8 C4          -4.0530     3.1910     1.4200 c2         1 6CM      -0.261200
      9 C5          -3.0820     3.5460     0.5610 c2         1 6CM      -0.197200
     10 C6          -1.6160     3.6770     0.9120 c3         1 6CM      -0.044200
     11 C7          -0.8030     2.4720     0.3960 c3         1 6CM      -0.072400
     12 C8           0.7000     2.5520     0.7420 c3         1 6CM      -0.074400
     13 C9           1.4980     1.3320     0.2310 c3         1 6CM      -0.073400
     14 C10          3.0010     1.4040     0.5770 c3         1 6CM      -0.075400
     15 C11          3.7970     0.1820     0.0680 c3         1 6CM      -0.073400
     16 C12          5.3000     0.2530     0.4140 c3         1 6CM      -0.075400
     17 C13          6.0950    -0.9700    -0.0950 c3         1 6CM      -0.073400
     18 C14          7.5990    -0.8990     0.2500 c3         1 6CM      -0.074400
     19 C15          8.3940    -2.1210    -0.2590 c3         1 6CM      -0.074400
     20 C16          9.8980    -2.0500     0.0850 c3         1 6CM      -0.076400
     21 C17         10.6930    -3.2720    -0.4240 c3         1 6CM      -0.074400
     22 C18         12.1930    -3.2020    -0.0810 c3         1 6CM      -0.088100
     23 O3          -6.0540     4.2220     0.6620 oh         1 6CM      -0.645000
     24 C20         -3.1050    -0.9640    -0.0470 c3         1 6CM      -0.157400
     25 C21         -3.4150    -2.2240    -0.8890 c3         1 6CM      -0.067400
     26 C22         -2.6710    -3.4810    -0.3870 c3         1 6CM      -0.077400
     27 C23         -2.9750    -4.7400    -1.2270 c3         1 6CM      -0.074400
     28 C24         -2.2320    -5.9930    -0.7270 c3         1 6CM      -0.089100
     29 HN2         -5.1250     0.1230     1.0180 hn         1 6CM       0.321500
     30 H2          -5.3830     2.3460    -0.9810 h1         1 6CM       0.085700
     31 H11         -7.8010     2.4250    -0.4120 h1         1 6CM       0.033200
     32 H12         -7.2960     0.8990    -1.1490 h1         1 6CM       0.033200
     33 HO1         -8.6600     0.5630     0.6900 ho         1 6CM       0.447000
     34 H3          -6.0250     2.6120     1.9810 h1         1 6CM       0.091700
     35 H4          -3.8140     2.9880     2.4650 ha         1 6CM       0.174000
     36 H5          -3.3110     3.7270    -0.4910 ha         1 6CM       0.172000
     37 H61         -1.4910     3.7490     2.0000 hc         1 6CM       0.044200
     38 H62         -1.2110     4.6040     0.4890 hc         1 6CM       0.044200
     39 H71         -0.9200     2.3990    -0.6920 hc         1 6CM       0.042200
     40 H72         -1.2210     1.5530     0.8250 hc         1 6CM       0.042200
     41 H81          0.8160     2.6290     1.8300 hc         1 6CM       0.036700
     42 H82          1.1220     3.4670     0.3080 hc         1 6CM       0.036700
     43 H91          1.3820     1.2560    -0.8570 hc         1 6CM       0.039200
     44 H92          1.0730     0.4170     0.6630 hc         1 6CM       0.039200
     45 H101         3.1170     1.4810     1.6660 hc         1 6CM       0.036200
     46 H102         3.4270     2.3170     0.1440 hc         1 6CM       0.036200
     47 H111         3.6810     0.1040    -1.0200 hc         1 6CM       0.038200
     48 H112         3.3700    -0.7310     0.5020 hc         1 6CM       0.038200
     49 H121         5.4170     0.3310     1.5020 hc         1 6CM       0.036700
     50 H122         5.7270     1.1660    -0.0200 hc         1 6CM       0.036700
     51 H131         5.9790    -1.0480    -1.1830 hc         1 6CM       0.037700
     52 H132         5.6690    -1.8830     0.3400 hc         1 6CM       0.037700
     53 H141         7.7160    -0.8210     1.3380 hc         1 6CM       0.036700
     54 H142         8.0260     0.0140    -0.1850 hc         1 6CM       0.036700
     55 H151         8.2770    -2.1990    -1.3470 hc         1 6CM       0.036700
     56 H152         7.9680    -3.0340     0.1750 hc         1 6CM       0.036700
     57 H161        10.0150    -1.9730     1.1730 hc         1 6CM       0.036700
     58 H162        10.3240    -1.1370    -0.3490 hc         1 6CM       0.036700
     59 H171        10.5800    -3.3520    -1.5130 hc         1 6CM       0.036700
     60 H172        10.2710    -4.1880     0.0090 hc         1 6CM       0.036700
     61 H181        12.6530    -2.3140    -0.5300 hc         1 6CM       0.031367
     62 H182        12.3410    -3.1580     1.0050 hc         1 6CM       0.031367
     63 H183        12.7150    -4.0880    -0.4620 hc         1 6CM       0.031367
     64 HO3         -5.5780     4.9040     1.1810 ho         1 6CM       0.439000
     65 H201        -2.0280    -0.7680    -0.1000 hc         1 6CM       0.055700
     66 H202        -3.3950    -1.1600     0.9930 hc         1 6CM       0.055700
     67 H211        -4.4960    -2.4120    -0.8720 hc         1 6CM       0.053700
     68 H212        -3.1400    -2.0360    -1.9340 hc         1 6CM       0.053700
     69 H221        -1.5900    -3.2900    -0.4030 hc         1 6CM       0.036200
     70 H222        -2.9470    -3.6700     0.6580 hc         1 6CM       0.036200
     71 H231        -4.0550    -4.9350    -1.2120 hc         1 6CM       0.039200
     72 H232        -2.6990    -4.5550    -2.2730 hc         1 6CM       0.039200
     73 H241        -1.1470    -5.8420    -0.7650 hc         1 6CM       0.031367
     74 H242        -2.5150    -6.2260     0.3060 hc         1 6CM       0.031367
     75 H243        -2.4790    -6.8590    -1.3540 hc         1 6CM       0.031367
@<TRIPOS>BOND
     1     1     2 2   
     2     2     3 1   
     3     2    24 1   
     4     3     4 1   
     5     3    29 1   
     6     4     5 1   
     7     4     7 1   
     8     4    30 1   
     9     5     6 1   
    10     5    31 1   
    11     5    32 1   
    12     6    33 1   
    13     7     8 1   
    14     7    23 1   
    15     7    34 1   
    16     8     9 2   
    17     8    35 1   
    18     9    10 1   
    19     9    36 1   
    20    10    11 1   
    21    10    37 1   
    22    10    38 1   
    23    11    12 1   
    24    11    39 1   
    25    11    40 1   
    26    12    13 1   
    27    12    41 1   
    28    12    42 1   
    29    13    14 1   
    30    13    43 1   
    31    13    44 1   
    32    14    15 1   
    33    14    45 1   
    34    14    46 1   
    35    15    16 1   
    36    15    47 1   
    37    15    48 1   
    38    16    17 1   
    39    16    49 1   
    40    16    50 1   
    41    17    18 1   
    42    17    51 1   
    43    17    52 1   
    44    18    19 1   
    45    18    53 1   
    46    18    54 1   
    47    19    20 1   
    48    19    55 1   
    49    19    56 1   
    50    20    21 1   
    51    20    57 1   
    52    20    58 1   
    53    21    22 1   
    54    21    59 1   
    55    21    60 1   
    56    22    61 1   
    57    22    62 1   
    58    22    63 1   
    59    23    64 1   
    60    24    25 1   
    61    24    65 1   
    62    24    66 1   
    63    25    26 1   
    64    25    67 1   
    65    25    68 1   
    66    26    27 1   
    67    26    69 1   
    68    26    70 1   
    69    27    28 1   
    70    27    71 1   
    71    27    72 1   
    72    28    73 1   
    73    28    74 1   
    74    28    75 1   
@<TRIPOS>SUBSTRUCTURE
     1 6CM         1 TEMP              0 ****  ****    0 ROOT
