@<TRIPOS>MOLECULE
6CR
   32    34     1     0     0
SMALL
No Charge or Current Charge


@<TRIPOS>ATOM
      1 N1          -3.7250     0.4880    -0.0080 nb         1 6CR      -0.257000
      2 C2          -2.8760     1.5020    -0.2480 ca         1 6CR       0.409900
      3 N3          -1.5470     1.4340    -0.4460 nb         1 6CR      -0.262000
      4 C4          -1.0160     0.1970    -0.3950 ca         1 6CR       0.145500
      5 C5          -1.7830    -0.9160    -0.1570 ca         1 6CR      -0.079600
      6 C6          -3.1710    -0.7410     0.0380 ca         1 6CR       0.315000
      7 N7          -1.0360    -2.0830    -0.1480 nc         1 6CR      -0.524100
      8 C8           0.2060    -1.6240    -0.3910 cd         1 6CR       0.419700
      9 N9           0.2780    -0.2260    -0.5470 na         1 6CR      -0.323300
     10 C1           1.4660     0.5860    -0.8090 c5         1 6CR       0.320300
     11 Cl1         -4.2440    -2.1010     0.3500 cl         1 6CR      -0.133000
     12 C7           1.9500     1.4570     0.4070 c5         1 6CR       0.103300
     13 O2           2.6420     2.6580     0.0230 oh         1 6CR      -0.702000
     14 N20         -3.4230     2.7400    -0.2970 nv         1 6CR      -1.057900
     15 C3           2.9450     0.4650     1.0700 c5         1 6CR       0.090300
     16 O3           3.8310     1.1430     1.9810 oh         1 6CR      -0.707000
     17 C9           3.6560    -0.0770    -0.2070 c5         1 6CR       0.160300
     18 O4           2.5680    -0.2990    -1.1410 os         1 6CR      -0.426000
     19 C10          4.4710    -1.3820     0.0100 c3         1 6CR       0.159600
     20 O5           5.2360    -1.7280    -1.1610 oh         1 6CR      -0.703000
     21 H8           1.0940    -2.2420    -0.4620 h5         1 6CR       0.079800
     22 H1           1.2150     1.2270    -1.6640 h2         1 6CR       0.122700
     23 H2           1.1130     1.6940     1.0800 h1         1 6CR       0.083700
     24 HO2          3.3860     2.7210     0.6730 ho         1 6CR       0.526000
     25 HN20        -4.4340     2.8190    -0.3810 hn         1 6CR       0.502000
     26 HN2A        -2.8720     3.5000    -0.6920 hn         1 6CR       0.502000
     27 H3           2.4060    -0.3470     1.5800 h1         1 6CR       0.057700
     28 HO3          3.5050     0.9740     2.8990 ho         1 6CR       0.519000
     29 H4           4.3280     0.6850    -0.6250 h1         1 6CR       0.095700
     30 H5           5.1450    -1.2330     0.8640 h1         1 6CR       0.027700
     31 H5'A         3.7790    -2.1940     0.2730 h1         1 6CR       0.027700
     32 HO5          5.6910    -2.5810    -0.9670 ho         1 6CR       0.508000
@<TRIPOS>BOND
     1     1     2 ar  
     2     1     6 ar  
     3     2     3 ar  
     4     2    14 1   
     5     3     4 ar  
     6     4     5 ar  
     7     4     9 1   
     8     5     6 ar  
     9     5     7 1   
    10     6    11 1   
    11     7     8 2   
    12     8     9 1   
    13     8    21 1   
    14     9    10 1   
    15    10    12 1   
    16    10    18 1   
    17    10    22 1   
    18    12    13 1   
    19    12    15 1   
    20    12    23 1   
    21    13    24 1   
    22    14    25 1   
    23    14    26 1   
    24    15    16 1   
    25    15    17 1   
    26    15    27 1   
    27    16    28 1   
    28    17    18 1   
    29    17    19 1   
    30    17    29 1   
    31    19    20 1   
    32    19    30 1   
    33    19    31 1   
    34    20    32 1   
@<TRIPOS>SUBSTRUCTURE
     1 6CR         1 TEMP              0 ****  ****    0 ROOT
