@<TRIPOS>MOLECULE
6CR
   32    34     1     0     0
SMALL
abcg2


@<TRIPOS>ATOM
      1 N1          -3.4810     0.3530     0.0460 nb         1 6CR      -0.257000
      2 C2          -2.6790     1.4270    -0.1290 ca         1 6CR       0.409900
      3 N3          -1.3660     1.3920    -0.3580 nb         1 6CR      -0.262000
      4 C4          -0.8780     0.1670    -0.3990 ca         1 6CR       0.145500
      5 C5          -1.5960    -1.0230    -0.2370 ca         1 6CR      -0.079600
      6 C6          -2.9470    -0.8360    -0.0090 ca         1 6CR       0.315000
      7 N7          -0.7710    -2.1090    -0.3600 nc         1 6CR      -0.524100
      8 C8           0.3990    -1.5970    -0.5870 cd         1 6CR       0.419700
      9 N9           0.4070    -0.2230    -0.6110 na         1 6CR      -0.323300
     10 C1           1.5300     0.6700    -0.9050 c5         1 6CR       0.320300
     11 CL1         -3.9800    -2.1980     0.2090 cl         1 6CR      -0.133000
     12 C7           1.9030     1.5160     0.3090 c5         1 6CR       0.103300
     13 O2           2.5450     2.6670    -0.1640 oh         1 6CR      -0.702000
     14 N20         -3.2700     2.6300    -0.0320 nv         1 6CR      -1.057900
     15 C3           2.8930     0.5840     1.0160 c5         1 6CR       0.090300
     16 O3           3.8110     1.2520     1.8350 oh         1 6CR      -0.707000
     17 C9           3.6120    -0.0670    -0.1620 c5         1 6CR       0.160300
     18 O4           2.6480    -0.0980    -1.2180 os         1 6CR      -0.426000
     19 C10          4.1180    -1.4540     0.1510 c3         1 6CR       0.159600
     20 O5           4.7700    -1.9710    -0.9820 oh         1 6CR      -0.703000
     21 H8           1.2960    -2.1710    -0.7540 h5         1 6CR       0.079800
     22 H1           1.2420     1.2880    -1.7600 h2         1 6CR       0.122700
     23 H2           1.0340     1.7600     0.9320 h1         1 6CR       0.083700
     24 HO2          3.1880     2.9390     0.5020 ho         1 6CR       0.526000
     25 HN20        -4.2730     2.6860    -0.0410 hn         1 6CR       0.502000
     26 HN2A        -2.7590     3.4480    -0.3150 hn         1 6CR       0.502000
     27 H3           2.3310    -0.1740     1.5770 h1         1 6CR       0.057700
     28 HO3          3.4120     1.3920     2.7000 ho         1 6CR       0.519000
     29 H4           4.4550     0.5620    -0.4750 h1         1 6CR       0.095700
     30 H5           4.7930    -1.3660     1.0120 h1         1 6CR       0.027700
     31 H5'A         3.2800    -2.0890     0.4700 h1         1 6CR       0.027700
     32 HO5          5.1150    -2.8400    -0.7600 ho         1 6CR       0.508000
@<TRIPOS>BOND
     1     1     2 ar  
     2     1     6 ar  
     3     2     3 ar  
     4     2    14 1   
     5     3     4 ar  
     6     4     5 ar  
     7     4     9 1   
     8     5     6 ar  
     9     5     7 1   
    10     6    11 1   
    11     7     8 2   
    12     8     9 1   
    13     8    21 1   
    14     9    10 1   
    15    10    12 1   
    16    10    18 1   
    17    10    22 1   
    18    12    13 1   
    19    12    15 1   
    20    12    23 1   
    21    13    24 1   
    22    14    25 1   
    23    14    26 1   
    24    15    16 1   
    25    15    17 1   
    26    15    27 1   
    27    16    28 1   
    28    17    18 1   
    29    17    19 1   
    30    17    29 1   
    31    19    20 1   
    32    19    30 1   
    33    19    31 1   
    34    20    32 1   
@<TRIPOS>SUBSTRUCTURE
     1 6CR         1 TEMP              0 ****  ****    0 ROOT
