@<TRIPOS>MOLECULE
6CS
   20    20     1     0     0
SMALL
No Charge or Current Charge


@<TRIPOS>ATOM
      1 O            1.8680    -1.4950     0.9690 o          1 6CS      -0.727000
      2 C            1.8780    -0.7900    -0.0350 c          1 6CS       0.748000
      3 OXT          2.6940    -0.9840    -0.9310 o          1 6CS      -0.727000
      4 CA           0.5250    -0.1140    -0.4480 c6         1 6CS      -0.010500
      5 N           -0.6980    -1.0050    -0.4360 n2         1 6CS      -0.594900
      6 CAI         -1.8690    -0.5560    -0.1470 c2         1 6CS       0.571200
      7 CAA         -3.1070    -1.4190    -0.1000 c3         1 6CS      -0.122400
      8 NAG         -2.0790     0.7750     0.1680 nu         1 6CS      -0.974400
      9 CG2         -1.0490     1.8150     0.0330 c6         1 6CS       0.192800
     10 CB           0.3450     1.2080     0.3540 c6         1 6CS       0.143300
     11 OG1          1.3980     2.1430     0.0520 oh         1 6CS      -0.634000
     12 HA           0.6670     0.1740    -1.5000 h1         1 6CS       0.059700
     13 HN          -3.0470     1.0520     0.3210 hn         1 6CS       0.461000
     14 HAA1        -2.8780    -2.4600    -0.3540 hc         1 6CS       0.036700
     15 HAA2        -3.5540    -1.4120     0.9000 hc         1 6CS       0.036700
     16 HAA3        -3.8620    -1.0640    -0.8120 hc         1 6CS       0.036700
     17 HG21        -1.0470     2.1960    -1.0000 h1         1 6CS       0.014700
     18 HG22        -1.2630     2.6590     0.7040 h1         1 6CS       0.014700
     19 HB           0.3620     0.9590     1.4260 h1         1 6CS       0.063700
     20 HOG1         1.2430     2.9370     0.6100 ho         1 6CS       0.412000
@<TRIPOS>BOND
     1     1     2 1   
     2     2     3 1   
     3     2     4 1   
     4     4     5 1   
     5     4    10 1   
     6     4    12 1   
     7     5     6 2   
     8     6     7 1   
     9     6     8 1   
    10     7    14 1   
    11     7    15 1   
    12     7    16 1   
    13     8     9 1   
    14     8    13 1   
    15     9    10 1   
    16     9    17 1   
    17     9    18 1   
    18    10    11 1   
    19    10    19 1   
    20    11    20 1   
@<TRIPOS>SUBSTRUCTURE
     1 6CS         1 TEMP              0 ****  ****    0 ROOT
