@<TRIPOS>MOLECULE
6CS
   20    20     1     0     0
SMALL
abcg2


@<TRIPOS>ATOM
      1 O            1.8380    -1.1460     1.1020 o          1 6CS      -0.727000
      2 C            1.7360    -0.8540    -0.1060 c          1 6CS       0.748000
      3 OXT          2.5370    -1.1570    -1.0130 o          1 6CS      -0.727000
      4 CA           0.4690    -0.0700    -0.5150 c6         1 6CS      -0.010500
      5 N           -0.6650    -0.9810    -0.4470 n2         1 6CS      -0.594900
      6 CAI         -1.8130    -0.5010    -0.1510 c2         1 6CS       0.571200
      7 CAA         -3.0030    -1.4130    -0.0790 c3         1 6CS      -0.122400
      8 NAG         -2.0790     0.8040     0.1190 nu         1 6CS      -0.974400
      9 CG2         -1.0570     1.8160     0.0200 c6         1 6CS       0.192800
     10 CB           0.2830     1.1690     0.3460 c6         1 6CS       0.143300
     11 OG1          1.3580     2.0440     0.0900 oh         1 6CS      -0.634000
     12 HA           0.5890     0.2610    -1.5560 h1         1 6CS       0.059700
     13 HN          -3.0310     1.0860     0.2720 hn         1 6CS       0.461000
     14 HAA1        -2.6980    -2.4420    -0.2450 hc         1 6CS       0.036700
     15 HAA2        -3.4920    -1.3460     0.8950 hc         1 6CS       0.036700
     16 HAA3        -3.7450    -1.1420    -0.8320 hc         1 6CS       0.036700
     17 HG21        -1.0180     2.2610    -0.9820 h1         1 6CS       0.014700
     18 HG22        -1.2800     2.6180     0.7260 h1         1 6CS       0.014700
     19 HB           0.2690     0.8540     1.3970 h1         1 6CS       0.063700
     20 HOG1         1.3290     2.7590     0.7340 ho         1 6CS       0.412000
@<TRIPOS>BOND
     1     1     2 1   
     2     2     3 1   
     3     2     4 1   
     4     4     5 1   
     5     4    10 1   
     6     4    12 1   
     7     5     6 2   
     8     6     7 1   
     9     6     8 1   
    10     7    14 1   
    11     7    15 1   
    12     7    16 1   
    13     8     9 1   
    14     8    13 1   
    15     9    10 1   
    16     9    17 1   
    17     9    18 1   
    18    10    11 1   
    19    10    19 1   
    20    11    20 1   
@<TRIPOS>SUBSTRUCTURE
     1 6CS         1 TEMP              0 ****  ****    0 ROOT
