@<TRIPOS>MOLECULE
6CU
   49    52     1     0     0
SMALL
No Charge or Current Charge


@<TRIPOS>ATOM
      1 CAA          4.5610    -0.9990     2.0680 c3         1 6CU      -0.088100
      2 CAF          3.0970    -1.1140     1.5740 c3         1 6CU      -0.071400
      3 CAW          2.8250    -1.0360     0.0150 c6         1 6CU      -0.049000
      4 CAD          3.6610    -2.1880    -0.6440 c3         1 6CU      -0.088100
      5 CAL          3.3010     0.3490    -0.5790 c6         1 6CU      -0.070400
      6 CAK          2.4590     1.5780    -0.1070 c6         1 6CU      -0.061400
      7 CAS          0.9750     1.3140    -0.4400 c5         1 6CU      -0.066700
      8 CAV         -0.1620     2.3570    -0.1000 c5         1 6CU       0.024200
      9 CAB         -0.2330     3.5120    -1.1280 c3         1 6CU      -0.081600
     10 CAC         -0.0420     2.9690     1.3210 c3         1 6CU      -0.081600
     11 CAO         -1.3040     1.3860    -0.1920 cc         1 6CU      -0.069300
     12 NAM         -2.6950     1.5140    -0.0520 na         1 6CU      -0.203700
     13 CAQ         -3.2330     0.2360     0.1250 ca         1 6CU      -0.048200
     14 CAI         -4.5690    -0.1410     0.3120 ca         1 6CU      -0.127000
     15 CAG         -4.8480    -1.5140     0.4990 ca         1 6CU      -0.095000
     16 CAH         -3.8010    -2.4710     0.5020 ca         1 6CU      -0.136000
     17 CAJ         -2.4610    -2.0680     0.3170 ca         1 6CU      -0.064000
     18 CAR         -2.2240    -0.7020     0.1300 ca         1 6CU      -0.061800
     19 CAP         -1.0230     0.0570    -0.0810 cd         1 6CU      -0.155400
     20 CAU          0.4550    -0.0140     0.2160 c5         1 6CU       0.005500
     21 CAT          1.2690    -1.2560    -0.2680 c6         1 6CU       0.306800
     22 NAN          0.9720    -1.5480    -1.6640 n1         1 6CU      -0.912500
     23 CAE          0.6820    -1.7580    -2.7750 c1         1 6CU       0.497000
     24 H1           5.1760    -1.8340     1.7140 hc         1 6CU       0.033700
     25 H2           5.0220    -0.0590     1.7460 hc         1 6CU       0.033700
     26 H3           4.5850    -1.0190     3.1640 hc         1 6CU       0.033700
     27 H4           2.6950    -2.0580     1.9620 hc         1 6CU       0.039700
     28 H5           2.5450    -0.3300     2.1010 hc         1 6CU       0.039700
     29 H6           4.7380    -2.0520    -0.4960 hc         1 6CU       0.040033
     30 H7           3.3870    -3.1680    -0.2340 hc         1 6CU       0.040033
     31 H8           3.5140    -2.2340    -1.7290 hc         1 6CU       0.040033
     32 H9           4.3600     0.5250    -0.3510 hc         1 6CU       0.045700
     33 H10          3.2540     0.3000    -1.6760 hc         1 6CU       0.045700
     34 H11          2.5920     1.7460     0.9690 hc         1 6CU       0.044700
     35 H12          2.8030     2.4890    -0.6170 hc         1 6CU       0.044700
     36 H13          0.9790     1.1820    -1.5290 hc         1 6CU       0.062700
     37 H14         -0.3490     3.1280    -2.1490 hc         1 6CU       0.038700
     38 H15         -1.0850     4.1720    -0.9270 hc         1 6CU       0.038700
     39 H16          0.6780     4.1230    -1.1040 hc         1 6CU       0.038700
     40 H17          0.8510     3.6000     1.4100 hc         1 6CU       0.038700
     41 H18         -0.9130     3.5930     1.5560 hc         1 6CU       0.038700
     42 H19          0.0210     2.1940     2.0930 hc         1 6CU       0.038700
     43 H20         -3.2110     2.3850    -0.0050 hn         1 6CU       0.351000
     44 H21         -5.3670     0.5980     0.3160 ha         1 6CU       0.111000
     45 H22         -5.8760    -1.8400     0.6460 ha         1 6CU       0.110000
     46 H23         -4.0320    -3.5240     0.6500 ha         1 6CU       0.110000
     47 H24         -1.6460    -2.7870     0.3170 ha         1 6CU       0.112000
     48 H25          0.5810     0.0130     1.3020 hc         1 6CU       0.062700
     49 H26          0.9300    -2.1340     0.3040 h1         1 6CU       0.065700
@<TRIPOS>BOND
     1     1     2 1   
     2     1    24 1   
     3     1    25 1   
     4     1    26 1   
     5     2     3 1   
     6     2    27 1   
     7     2    28 1   
     8     3     4 1   
     9     3     5 1   
    10     3    21 1   
    11     4    29 1   
    12     4    30 1   
    13     4    31 1   
    14     5     6 1   
    15     5    32 1   
    16     5    33 1   
    17     6     7 1   
    18     6    34 1   
    19     6    35 1   
    20     7     8 1   
    21     7    20 1   
    22     7    36 1   
    23     8     9 1   
    24     8    10 1   
    25     8    11 1   
    26     9    37 1   
    27     9    38 1   
    28     9    39 1   
    29    10    40 1   
    30    10    41 1   
    31    10    42 1   
    32    11    12 1   
    33    11    19 2   
    34    12    13 1   
    35    12    43 1   
    36    13    14 ar  
    37    13    18 ar  
    38    14    15 ar  
    39    14    44 1   
    40    15    16 ar  
    41    15    45 1   
    42    16    17 ar  
    43    16    46 1   
    44    17    18 ar  
    45    17    47 1   
    46    18    19 1   
    47    19    20 1   
    48    20    21 1   
    49    20    48 1   
    50    21    22 1   
    51    21    49 1   
    52    22    23 3   
@<TRIPOS>SUBSTRUCTURE
     1 6CU         1 TEMP              0 ****  ****    0 ROOT
