@<TRIPOS>MOLECULE
6CU
   49    52     1     0     0
SMALL
abcg2


@<TRIPOS>ATOM
      1 CAA          4.5500    -0.8340     1.9540 c3         1 6CU      -0.088100
      2 CAF          3.1320    -1.1940     1.5250 c3         1 6CU      -0.071400
      3 CAW          2.8300    -1.0390     0.0170 c6         1 6CU      -0.049000
      4 CAD          3.5940    -2.1220    -0.7470 c3         1 6CU      -0.088100
      5 CAL          3.2480     0.3420    -0.5230 c6         1 6CU      -0.070400
      6 CAK          2.4260     1.5250     0.0010 c6         1 6CU      -0.061400
      7 CAS          0.9730     1.2420    -0.3210 c5         1 6CU      -0.066700
      8 CAV         -0.1380     2.2960    -0.0470 c5         1 6CU       0.024200
      9 CAB         -0.2120     3.3430    -1.1530 c3         1 6CU      -0.081600
     10 CAC          0.0260     2.9800     1.3150 c3         1 6CU      -0.081600
     11 CAO         -1.3030     1.3480    -0.0210 cc         1 6CU      -0.069300
     12 NAM         -2.6550     1.4960    -0.0580 na         1 6CU      -0.203700
     13 CAQ         -3.2260     0.2580     0.1100 ca         1 6CU      -0.048200
     14 CAI         -4.5680    -0.1090     0.1240 ca         1 6CU      -0.127000
     15 CAG         -4.8690    -1.4450     0.3260 ca         1 6CU      -0.095000
     16 CAH         -3.8560    -2.3990     0.5050 ca         1 6CU      -0.136000
     17 CAJ         -2.5220    -2.0370     0.4830 ca         1 6CU      -0.064000
     18 CAR         -2.1830    -0.6940     0.2820 ca         1 6CU      -0.061800
     19 CAP         -0.9690     0.0450     0.1800 cd         1 6CU      -0.155400
     20 CAU          0.5100    -0.0540     0.3660 c5         1 6CU       0.005500
     21 CAT          1.2950    -1.2550    -0.1610 c6         1 6CU       0.306800
     22 NAN          0.9500    -1.4840    -1.5210 n1         1 6CU      -0.912500
     23 CAE          0.6420    -1.6410    -2.6310 c1         1 6CU       0.497000
     24 H1           5.3120    -1.3810     1.3980 hc         1 6CU       0.033700
     25 H2           4.7510     0.2300     1.8330 hc         1 6CU       0.033700
     26 H3           4.6880    -1.0690     3.0090 hc         1 6CU       0.033700
     27 H4           2.9250    -2.2330     1.8020 hc         1 6CU       0.039700
     28 H5           2.4480    -0.5910     2.1230 hc         1 6CU       0.039700
     29 H6           4.6660    -2.0410    -0.5680 hc         1 6CU       0.040033
     30 H7           3.2810    -3.1220    -0.4380 hc         1 6CU       0.040033
     31 H8           3.4480    -2.0390    -1.8240 hc         1 6CU       0.040033
     32 H9           4.3100     0.4920    -0.3180 hc         1 6CU       0.045700
     33 H10          3.1600     0.3280    -1.6150 hc         1 6CU       0.045700
     34 H11          2.5740     1.6630     1.0760 hc         1 6CU       0.044700
     35 H12          2.7690     2.4420    -0.4850 hc         1 6CU       0.044700
     36 H13          0.9130     1.0540    -1.4010 hc         1 6CU       0.062700
     37 H14         -0.3370     2.8790    -2.1320 hc         1 6CU       0.038700
     38 H15         -1.0450     4.0310    -0.9950 hc         1 6CU       0.038700
     39 H16          0.7020     3.9380    -1.1760 hc         1 6CU       0.038700
     40 H17          0.9180     3.6090     1.3240 hc         1 6CU       0.038700
     41 H18         -0.8300     3.6210     1.5330 hc         1 6CU       0.038700
     42 H19          0.1150     2.2560     2.1260 hc         1 6CU       0.038700
     43 H20         -3.1620     2.3490    -0.2320 hn         1 6CU       0.351000
     44 H21         -5.3530     0.6250    -0.0130 ha         1 6CU       0.111000
     45 H22         -5.9050    -1.7580     0.3470 ha         1 6CU       0.110000
     46 H23         -4.1260    -3.4350     0.6630 ha         1 6CU       0.110000
     47 H24         -1.7490    -2.7830     0.6200 ha         1 6CU       0.112000
     48 H25          0.7360     0.0000     1.4370 hc         1 6CU       0.062700
     49 H26          1.0080    -2.1600     0.3850 h1         1 6CU       0.065700
@<TRIPOS>BOND
     1     1     2 1   
     2     1    24 1   
     3     1    25 1   
     4     1    26 1   
     5     2     3 1   
     6     2    27 1   
     7     2    28 1   
     8     3     4 1   
     9     3     5 1   
    10     3    21 1   
    11     4    29 1   
    12     4    30 1   
    13     4    31 1   
    14     5     6 1   
    15     5    32 1   
    16     5    33 1   
    17     6     7 1   
    18     6    34 1   
    19     6    35 1   
    20     7     8 1   
    21     7    20 1   
    22     7    36 1   
    23     8     9 1   
    24     8    10 1   
    25     8    11 1   
    26     9    37 1   
    27     9    38 1   
    28     9    39 1   
    29    10    40 1   
    30    10    41 1   
    31    10    42 1   
    32    11    12 1   
    33    11    19 2   
    34    12    13 1   
    35    12    43 1   
    36    13    14 ar  
    37    13    18 ar  
    38    14    15 ar  
    39    14    44 1   
    40    15    16 ar  
    41    15    45 1   
    42    16    17 ar  
    43    16    46 1   
    44    17    18 ar  
    45    17    47 1   
    46    18    19 1   
    47    19    20 1   
    48    20    21 1   
    49    20    48 1   
    50    21    22 1   
    51    21    49 1   
    52    22    23 3   
@<TRIPOS>SUBSTRUCTURE
     1 6CU         1 TEMP              0 ****  ****    0 ROOT
