@<TRIPOS>MOLECULE
6CV
   22    22     1     0     0
SMALL
bcc


@<TRIPOS>ATOM
      1 BR          26.3190   -40.7560   -29.0590 br         1 6CV      -0.140100
      2 N           20.6050   -36.3850   -27.7720 n8         1 6CV      -0.861800
      3 CA          21.9800   -36.6660   -28.1780 c3         1 6CV       0.020500
      4 CG          24.1140   -37.7070   -27.3150 ca         1 6CV      -0.037300
      5 CD1         25.1010   -36.7810   -26.9860 ca         1 6CV      -0.124000
      6 CE1         26.4350   -37.0320   -27.2700 ca         1 6CV      -0.143000
      7 CZ          26.8160   -38.2150   -27.8900 ca         1 6CV      -0.127000
      8 CE2         25.8300   -39.1330   -28.2160 ca         1 6CV      -0.009900
      9 CD2         24.4920   -38.8950   -27.9380 ca         1 6CV      -0.068000
     10 C           21.9940   -37.5070   -29.4810 c          1 6CV       0.927600
     11 O           21.4210   -38.6140   -29.4370 o          1 6CV      -0.826300
     12 OXT         22.5860   -37.0070   -30.4570 o          1 6CV      -0.826300
     13 HA          22.5550   -35.7470   -28.3650 h1         1 6CV       0.005700
     14 H7          24.8210   -35.8570   -26.4950 ha         1 6CV       0.120000
     15 H8          27.1920   -36.3060   -27.0060 ha         1 6CV       0.113000
     16 H9          27.8580   -38.4080   -28.1060 ha         1 6CV       0.126000
     17 H10         23.7330   -39.6180   -28.2050 ha         1 6CV       0.177000
     18 H           20.6200   -35.7430   -26.9870 hn         1 6CV       0.307800
     19 CB          22.6670   -37.4220   -27.0360 c3         1 6CV      -0.019100
     20 H2          20.1280   -35.8870   -28.5130 hn         1 6CV       0.307800
     21 HB1         22.5910   -36.8260   -26.1220 hc         1 6CV       0.039700
     22 HB2         22.1230   -38.3520   -26.8590 hc         1 6CV       0.039700
@<TRIPOS>BOND
     1     1     8 1   
     2     2     3 1   
     3     2    18 1   
     4     2    20 1   
     5     3    10 1   
     6     3    13 1   
     7     3    19 1   
     8     4     5 ar  
     9     4     9 ar  
    10     4    19 1   
    11     5     6 ar  
    12     5    14 1   
    13     6     7 ar  
    14     6    15 1   
    15     7     8 ar  
    16     7    16 1   
    17     8     9 ar  
    18     9    17 1   
    19    10    11 1   
    20    10    12 1   
    21    19    21 1   
    22    19    22 1   
@<TRIPOS>SUBSTRUCTURE
     1 6CV         1 TEMP              0 ****  ****    0 ROOT
