@<TRIPOS>MOLECULE
6CX
   56    59     1     0     0
SMALL
No Charge or Current Charge


@<TRIPOS>ATOM
      1 C2           4.0530     1.3600     2.2470 ca         1 6CX       0.160900
      2 C4           2.6340     0.5390     0.6520 ca         1 6CX       0.117500
      3 C5           2.3710    -0.5480     1.4460 ca         1 6CX      -0.087600
      4 C6           3.0130    -0.6270     2.7000 ca         1 6CX       0.442900
      5 C8           1.1850    -0.8420    -0.3260 cc         1 6CX       0.443700
      6 N9           1.8910     0.3560    -0.4800 na         1 6CX      -0.288300
      7 C10         -2.0220     2.1940     0.0340 c3         1 6CX       0.170500
      8 CG          -2.7680    -0.1160    -0.3790 c3         1 6CX       0.183800
      9 CB          -2.4290    -1.5840    -0.7470 c3         1 6CX      -0.057400
     10 CA          -3.6030    -2.5760    -0.5290 c3         1 6CX       0.013500
     11 C           -3.3000    -3.9490    -1.2600 c          1 6CX       0.698000
     12 O           -2.5270    -4.7360    -0.7280 o          1 6CX      -0.736000
     13 OXT         -3.9360    -4.2210    -2.2700 o          1 6CX      -0.736000
     14 N           -3.9730    -2.6710     0.9310 n8         1 6CX      -1.004200
     15 C11         -1.3310     1.0360    -2.0750 c3         1 6CX       0.180800
     16 C9          -0.2140     2.0760    -2.4600 c5         1 6CX       0.167300
     17 C3           0.6240     1.6680    -3.7130 c5         1 6CX       0.103300
     18 C7           1.6120     0.6420    -3.0730 c5         1 6CX       0.075300
     19 O2           2.8140     0.5410    -3.8680 oh         1 6CX      -0.702000
     20 C1           1.8400     1.2560    -1.6340 c5         1 6CX       0.317300
     21 N3           3.4790     1.5180     1.0300 nb         1 6CX      -0.218000
     22 N1           3.8620     0.3290     3.1060 nb         1 6CX      -0.319000
     23 N6           2.8250    -1.6620     3.5610 nv         1 6CX      -1.074900
     24 N7           1.4700    -1.4340     0.8510 nd         1 6CX      -0.534100
     25 O4           0.7950     2.2280    -1.4270 os         1 6CX      -0.428000
     26 O3           1.3650     2.7520    -4.2850 oh         1 6CX      -0.715000
     27 C51         -1.9700     2.1540     1.5550 cc         1 6CX       0.231300
     28 C52         -1.0330     1.5250     2.3300 cd         1 6CX      -0.180000
     29 N53         -1.4140     1.7840     3.6370 na         1 6CX      -0.309500
     30 C54         -2.5590     2.5570     3.5930 cd         1 6CX       0.367400
     31 N55         -2.9030     2.7900     2.3340 nc         1 6CX      -0.685000
     32 H21          4.7390     2.1420     2.5670 h5         1 6CX       0.030100
     33 H81          0.5060    -1.2230    -1.0800 h5         1 6CX       0.121800
     34 H102        -1.3200     2.9790    -0.2720 h1         1 6CX       0.033700
     35 H101        -3.0190     2.5310    -0.2820 h1         1 6CX       0.033700
     36 HG2         -3.0340    -0.1040     0.6860 h1         1 6CX       0.033200
     37 HG3         -3.6730     0.1760    -0.9290 h1         1 6CX       0.033200
     38 HB2         -2.1470    -1.6380    -1.8040 hc         1 6CX       0.042200
     39 HB3         -1.5610    -1.9150    -0.1660 hc         1 6CX       0.042200
     40 HA          -4.4770    -2.1510    -1.0420 h1         1 6CX       0.037700
     41 H2          -4.7870    -3.2900     1.0310 hn         1 6CX       0.382000
     42 H           -3.2300    -3.1870     1.4180 hn         1 6CX       0.382000
     43 H5'2        -1.0110     0.0630    -2.4610 h1         1 6CX       0.038200
     44 H5'1        -2.2280     1.3040    -2.6500 h1         1 6CX       0.038200
     45 H4'1        -0.7030     3.0480    -2.6070 h1         1 6CX       0.077700
     46 H3'1        -0.0050     1.1940    -4.4790 h1         1 6CX       0.048700
     47 H2'1         1.1240    -0.3400    -3.0070 h1         1 6CX       0.075700
     48 H2'2         3.3110    -0.2590    -3.5690 ho         1 6CX       0.509000
     49 H1'1         2.8010     1.7860    -1.6280 h2         1 6CX       0.100700
     50 H61          2.3680    -2.4900     3.1860 hn         1 6CX       0.503000
     51 H62          3.5170    -1.8130     4.2900 hn         1 6CX       0.503000
     52 H3'2         2.2480     2.3370    -4.4610 ho         1 6CX       0.516000
     53 H521        -0.1670     0.9370     2.0460 h4         1 6CX       0.183000
     54 H531        -0.9520     1.4720     4.4830 hn         1 6CX       0.345000
     55 H541        -3.0660     2.9010     4.4870 h5         1 6CX       0.042100
     56 ND          -1.6940     0.8930    -0.6290 n3         1 6CX      -0.752600
@<TRIPOS>BOND
     1     1    21 ar  
     2     1    22 ar  
     3     1    32 1   
     4     2     3 ar  
     5     2     6 1   
     6     2    21 ar  
     7     3     4 ar  
     8     3    24 1   
     9     4    22 ar  
    10     4    23 1   
    11     5     6 1   
    12     5    24 2   
    13     5    33 1   
    14     6    20 1   
    15     7    27 1   
    16     7    34 1   
    17     7    35 1   
    18     7    56 1   
    19     8     9 1   
    20     8    36 1   
    21     8    37 1   
    22     8    56 1   
    23     9    10 1   
    24     9    38 1   
    25     9    39 1   
    26    10    11 1   
    27    10    14 1   
    28    10    40 1   
    29    11    12 1   
    30    11    13 1   
    31    14    41 1   
    32    14    42 1   
    33    15    16 1   
    34    15    43 1   
    35    15    44 1   
    36    15    56 1   
    37    16    17 1   
    38    16    25 1   
    39    16    45 1   
    40    17    18 1   
    41    17    26 1   
    42    17    46 1   
    43    18    19 1   
    44    18    20 1   
    45    18    47 1   
    46    19    48 1   
    47    20    25 1   
    48    20    49 1   
    49    23    50 1   
    50    23    51 1   
    51    26    52 1   
    52    27    28 2   
    53    27    31 1   
    54    28    29 1   
    55    28    53 1   
    56    29    30 1   
    57    29    54 1   
    58    30    31 2   
    59    30    55 1   
@<TRIPOS>SUBSTRUCTURE
     1 6CX         1 TEMP              0 ****  ****    0 ROOT
