@<TRIPOS>MOLECULE
6CX
   56    59     1     0     0
SMALL
bcc


@<TRIPOS>ATOM
      1 C2           5.0390     0.2570     1.5140 ca         1 6CX       0.686900
      2 C4           3.2370    -0.3190     0.4100 ca         1 6CX       0.445800
      3 C5           3.2730    -1.6120     0.9060 ca         1 6CX      -0.218200
      4 C6           4.3320    -1.9120     1.7830 ca         1 6CX       0.771200
      5 C8           1.5820    -1.5300    -0.3590 cc         1 6CX       0.443700
      6 N9           2.1480    -0.2810    -0.4170 na         1 6CX      -0.259000
      7 C10         -3.2070     2.4870    -0.4460 c3         1 6CX       0.170500
      8 CG          -3.1410     0.0650    -0.4650 c3         1 6CX       0.183800
      9 CB          -2.2110    -1.0990    -0.1480 c3         1 6CX      -0.057400
     10 CA          -2.8910    -2.4650    -0.1070 c3         1 6CX       0.013500
     11 C           -1.8260    -3.6150    -0.1330 c          1 6CX       0.908600
     12 O           -1.8760    -4.5180     0.7010 o          1 6CX      -0.841300
     13 OXT         -0.9870    -3.5250    -1.0770 o          1 6CX      -0.841300
     14 N           -3.8610    -2.5060     0.9750 n8         1 6CX      -0.893800
     15 C11         -1.6410     1.3480    -1.8920 c3         1 6CX       0.180800
     16 C9          -0.2690     1.9680    -1.6830 c5         1 6CX       0.144100
     17 C3           0.6010     1.8910    -2.9410 c5         1 6CX       0.080100
     18 C7           1.4820     0.6750    -2.6310 c5         1 6CX       0.052100
     19 O2           2.7060     0.6500    -3.3010 oh         1 6CX      -0.579800
     20 C1           1.6920     0.8750    -1.1370 c5         1 6CX       0.264800
     21 N3           4.0930     0.6570     0.6870 nb         1 6CX      -0.744000
     22 N1           5.2040    -0.9440     2.0640 nb         1 6CX      -0.845000
     23 N6           4.4890    -3.1160     2.3430 nv         1 6CX      -0.964500
     24 N7           2.2280    -2.3490     0.4150 nd         1 6CX      -0.534100
     25 O4           0.4380     1.2610    -0.6560 os         1 6CX      -0.381600
     26 O3           1.3750     3.0540    -3.0430 oh         1 6CX      -0.592800
     27 C51         -3.3850     2.7830     1.0060 cc         1 6CX       0.296600
     28 C52         -2.6030     2.3690     2.0470 cd         1 6CX      -0.212600
     29 N53         -3.1570     2.9420     3.1560 na         1 6CX      -0.309900
     30 C54         -4.2230     3.6620     2.7530 cd         1 6CX       0.367400
     31 N55         -4.3890     3.5880     1.4600 nc         1 6CX      -0.685000
     32 H21          5.7780     1.0000     1.7910 h5         1 6CX       0.030100
     33 H81          0.6830    -1.7940    -0.8980 h5         1 6CX       0.121800
     34 H102        -2.7060     3.3360    -0.9200 h1         1 6CX       0.033700
     35 H101        -4.1950     2.4210    -0.9300 h1         1 6CX       0.033700
     36 HG2         -3.8380     0.2110     0.3610 h1         1 6CX       0.033200
     37 HG3         -3.7610    -0.1890    -1.3450 h1         1 6CX       0.033200
     38 HB2         -1.4250    -1.1500    -0.8990 hc         1 6CX       0.042200
     39 HB3         -1.7070    -0.8970     0.8040 hc         1 6CX       0.042200
     40 HA          -3.4560    -2.5690    -1.0470 h1         1 6CX       0.037700
     41 H2          -4.2350    -3.4430     1.0530 hn         1 6CX       0.326800
     42 H           -3.3820    -2.3520     1.8540 hn         1 6CX       0.326800
     43 H5'2        -1.5190     0.3380    -2.2910 h1         1 6CX       0.038200
     44 H5'1        -2.1530     1.9130    -2.6850 h1         1 6CX       0.038200
     45 H4'1        -0.3820     3.0140    -1.3780 h1         1 6CX       0.077700
     46 H3'1        -0.0050     1.7340    -3.8440 h1         1 6CX       0.048700
     47 H2'1         0.9010    -0.2410    -2.8040 h1         1 6CX       0.075700
     48 H2'2         2.5940     0.1990    -4.1390 ho         1 6CX       0.410000
     49 H1'1         2.4570     1.6450    -0.9730 h2         1 6CX       0.100700
     50 H61          3.8810    -3.8810     2.1050 hn         1 6CX       0.447800
     51 H62          5.2900    -3.3010     2.9220 hn         1 6CX       0.447800
     52 H3'2         2.1360     2.8600    -3.6010 ho         1 6CX       0.417000
     53 H521        -1.7310     1.7380     2.0830 h4         1 6CX       0.201000
     54 H531        -2.8340     2.8400     4.1040 hn         1 6CX       0.294700
     55 H541        -4.8430     4.2160     3.4400 h5         1 6CX       0.042100
     56 ND          -2.4060     1.3020    -0.6650 n3         1 6CX      -0.752600
@<TRIPOS>BOND
     1     1    21 ar  
     2     1    22 ar  
     3     1    32 1   
     4     2     3 ar  
     5     2     6 1   
     6     2    21 ar  
     7     3     4 ar  
     8     3    24 1   
     9     4    22 ar  
    10     4    23 1   
    11     5     6 1   
    12     5    24 2   
    13     5    33 1   
    14     6    20 1   
    15     7    27 1   
    16     7    34 1   
    17     7    35 1   
    18     7    56 1   
    19     8     9 1   
    20     8    36 1   
    21     8    37 1   
    22     8    56 1   
    23     9    10 1   
    24     9    38 1   
    25     9    39 1   
    26    10    11 1   
    27    10    14 1   
    28    10    40 1   
    29    11    12 1   
    30    11    13 1   
    31    14    41 1   
    32    14    42 1   
    33    15    16 1   
    34    15    43 1   
    35    15    44 1   
    36    15    56 1   
    37    16    17 1   
    38    16    25 1   
    39    16    45 1   
    40    17    18 1   
    41    17    26 1   
    42    17    46 1   
    43    18    19 1   
    44    18    20 1   
    45    18    47 1   
    46    19    48 1   
    47    20    25 1   
    48    20    49 1   
    49    23    50 1   
    50    23    51 1   
    51    26    52 1   
    52    27    28 2   
    53    27    31 1   
    54    28    29 1   
    55    28    53 1   
    56    29    30 1   
    57    29    54 1   
    58    30    31 2   
    59    30    55 1   
@<TRIPOS>SUBSTRUCTURE
     1 6CX         1 TEMP              0 ****  ****    0 ROOT
