@<TRIPOS>MOLECULE
6CY
   61    65     1     0     0
SMALL
abcg2


@<TRIPOS>ATOM
      1 C2          -4.6760     2.0930    -0.8980 c6         1 6CY       0.073500
      2 C41          3.4630     0.6820    -0.2620 cp         1 6CY      -0.145000
      3 C42          2.4100     1.5680    -0.0490 ca         1 6CY       0.422900
      4 C45          3.7740     3.3500     0.3150 ca         1 6CY       0.627300
      5 C46          4.9180     2.5550     0.1110 ca         1 6CY      -0.106000
      6 C47          4.7480     1.2120    -0.1790 ca         1 6CY       0.006000
      7 C49          6.2120     3.1320     0.2160 cg         1 6CY       0.340000
      8 C52          2.8260     5.4560     0.8040 c3         1 6CY       0.158900
      9 C56         -7.0130     1.3620    -1.3640 c          1 6CY       0.610100
     10 C58         -7.3700     2.7960    -1.6780 c3         1 6CY      -0.176100
     11 C12         -5.2860    -0.2440    -0.7250 c6         1 6CY       0.073500
     12 C15         -2.2740     0.3940     0.8250 c          1 6CY       0.618700
     13 C17         -1.8530    -0.9760     1.2600 ca         1 6CY      -0.153600
     14 C18         -0.8480    -1.6020     0.5360 ca         1 6CY      -0.052000
     15 C20         -0.3170    -2.8160     0.9600 cp         1 6CY      -0.166500
     16 C21         -0.8170    -3.4140     2.1150 ca         1 6CY      -0.047000
     17 C23         -1.8080    -2.7820     2.8500 ca         1 6CY      -0.123000
     18 C25         -2.3260    -1.5650     2.4280 ca         1 6CY      -0.069000
     19 C27          0.7570    -3.4700     0.1860 cp         1 6CY       0.203500
     20 C29          1.5710    -5.3450    -0.8140 ca         1 6CY       0.127900
     21 N1          -5.7290     1.1040    -1.0210 n          1 6CY      -0.419800
     22 C5          -4.0520     2.0180     0.4880 c6         1 6CY       0.075000
     23 N8          -3.5950     0.6700     0.7800 n          1 6CY      -0.401800
     24 C9          -4.6520    -0.3200     0.6580 c6         1 6CY       0.075000
     25 O16         -1.4080     1.2200     0.5710 o          1 6CY      -0.601100
     26 N28          0.6350    -4.7540    -0.0470 nb         1 6CY      -0.184000
     27 N31          2.5870    -4.7710    -1.3910 nb         1 6CY      -0.160000
     28 C32          2.7620    -3.4530    -1.1410 ca         1 6CY       0.026000
     29 C33          1.8770    -2.7390    -0.3030 ca         1 6CY      -0.129000
     30 C34          2.1520    -1.3920     0.0080 ca         1 6CY      -0.071000
     31 C36          3.2170    -0.7380    -0.5610 cp         1 6CY      -0.021000
     32 C37          4.0650    -1.4510    -1.4450 ca         1 6CY      -0.080000
     33 C39          3.8580    -2.7730    -1.7160 ca         1 6CY      -0.087000
     34 N44          2.5600     2.8550     0.2320 nb         1 6CY      -0.752000
     35 N50          7.2640     3.5960     0.3010 n1         1 6CY      -0.448000
     36 O51          3.9670     4.6250     0.5910 os         1 6CY      -0.445300
     37 O57         -7.8560     0.4760    -1.4270 o          1 6CY      -0.602100
     38 H1          -3.9110     1.9100    -1.6600 h1         1 6CY       0.063950
     39 H2          -5.0600     3.0960    -1.0580 h1         1 6CY       0.063950
     40 H3           1.3830     1.2260    -0.1220 h4         1 6CY       0.042100
     41 H4           5.6210     0.5880    -0.3210 ha         1 6CY       0.133000
     42 H5           2.2550     5.1280     1.6720 h1         1 6CY       0.053367
     43 H6           3.2200     6.4520     0.9810 h1         1 6CY       0.053367
     44 H7           2.1760     5.4690    -0.0700 h1         1 6CY       0.053367
     45 H8          -7.2130     3.4530    -0.8220 hc         1 6CY       0.061700
     46 H9          -6.7750     3.1880    -2.5040 hc         1 6CY       0.061700
     47 H10         -8.4190     2.8450    -1.9580 hc         1 6CY       0.061700
     48 H11         -6.1290    -0.9270    -0.7780 h1         1 6CY       0.063950
     49 H12         -4.5510    -0.5570    -1.4740 h1         1 6CY       0.063950
     50 H13         -0.4940    -1.1440    -0.3780 ha         1 6CY       0.131000
     51 H14         -0.4130    -4.3610     2.4480 ha         1 6CY       0.133000
     52 H15         -2.1740    -3.2360     3.7610 ha         1 6CY       0.123000
     53 H16         -3.0870    -1.0740     3.0220 ha         1 6CY       0.123000
     54 H17          1.4410    -6.4080    -0.9780 h5         1 6CY       0.052100
     55 H18         -3.2230     2.7160     0.5620 h1         1 6CY       0.067200
     56 H19         -4.7990     2.2970     1.2360 h1         1 6CY       0.067200
     57 H20         -5.4070    -0.1390     1.4270 h1         1 6CY       0.067200
     58 H21         -4.2630    -1.3240     0.8050 h1         1 6CY       0.067200
     59 H22          1.5330    -0.8800     0.7320 ha         1 6CY       0.133000
     60 H23          4.8940    -0.9400    -1.9170 ha         1 6CY       0.121000
     61 H24          4.5220    -3.3170    -2.3740 ha         1 6CY       0.139000
@<TRIPOS>BOND
     1     1    21 1   
     2     1    22 1   
     3     1    38 1   
     4     1    39 1   
     5     2     3 ar  
     6     2     6 ar  
     7     2    31 1   
     8     3    34 ar  
     9     3    40 1   
    10     4     5 ar  
    11     4    34 ar  
    12     4    36 1   
    13     5     6 ar  
    14     5     7 1   
    15     6    41 1   
    16     7    35 3   
    17     8    36 1   
    18     8    42 1   
    19     8    43 1   
    20     8    44 1   
    21     9    10 1   
    22     9    21 1   
    23     9    37 2   
    24    10    45 1   
    25    10    46 1   
    26    10    47 1   
    27    11    21 1   
    28    11    24 1   
    29    11    48 1   
    30    11    49 1   
    31    12    13 1   
    32    12    23 1   
    33    12    25 2   
    34    13    14 ar  
    35    13    18 ar  
    36    14    15 ar  
    37    14    50 1   
    38    15    16 ar  
    39    15    19 1   
    40    16    17 ar  
    41    16    51 1   
    42    17    18 ar  
    43    17    52 1   
    44    18    53 1   
    45    19    26 ar  
    46    19    29 ar  
    47    20    26 ar  
    48    20    27 ar  
    49    20    54 1   
    50    22    23 1   
    51    22    55 1   
    52    22    56 1   
    53    23    24 1   
    54    24    57 1   
    55    24    58 1   
    56    27    28 ar  
    57    28    29 ar  
    58    28    33 ar  
    59    29    30 ar  
    60    30    31 ar  
    61    30    59 1   
    62    31    32 ar  
    63    32    33 ar  
    64    32    60 1   
    65    33    61 1   
@<TRIPOS>SUBSTRUCTURE
     1 6CY         1 TEMP              0 ****  ****    0 ROOT
