@<TRIPOS>MOLECULE
6CY
   61    65     1     0     0
SMALL
No Charge or Current Charge


@<TRIPOS>ATOM
      1 C2          -5.2230     2.1610    -0.5450 c6         1 6CY       0.073500
      2 C41          3.7390     0.6800    -0.2600 cp         1 6CY      -0.145000
      3 C42          2.7040     1.6350    -0.0930 ca         1 6CY       0.422900
      4 C45          4.1900     3.3550     0.3710 ca         1 6CY       0.627300
      5 C46          5.2900     2.4910     0.2280 ca         1 6CY      -0.106000
      6 C47          5.0660     1.1410    -0.0900 ca         1 6CY       0.006000
      7 C49          6.6260     2.9730     0.4090 cg         1 6CY       0.340000
      8 C52          3.3320     5.6130     0.8430 c3         1 6CY       0.158900
      9 C56         -7.2500     1.1750    -1.7010 c          1 6CY       0.610100
     10 C58         -7.6840     2.5640    -2.1750 c3         1 6CY      -0.176100
     11 C12         -5.7890    -0.2860    -0.2740 c6         1 6CY       0.073500
     12 C15         -2.4990     0.3830     0.6240 c          1 6CY       0.618700
     13 C17         -1.9060    -0.9130     1.1360 ca         1 6CY      -0.153600
     14 C18         -0.8770    -1.5380     0.4010 ca         1 6CY      -0.052000
     15 C20         -0.2610    -2.7330     0.8520 cp         1 6CY      -0.166500
     16 C21         -0.7180    -3.3020     2.0650 ca         1 6CY      -0.047000
     17 C23         -1.7250    -2.6780     2.8170 ca         1 6CY      -0.123000
     18 C25         -2.3090    -1.4840     2.3630 ca         1 6CY      -0.069000
     19 C27          0.8140    -3.3970     0.0510 cp         1 6CY       0.203500
     20 C29          1.5220    -5.3180    -1.0050 ca         1 6CY       0.127900
     21 N1          -6.2360     1.0720    -0.7190 n          1 6CY      -0.419800
     22 C5          -4.3840     2.0610     0.7510 c6         1 6CY       0.075000
     23 N8          -3.8350     0.7030     0.9590 n          1 6CY      -0.401800
     24 C9          -4.9150    -0.3120     1.0050 c6         1 6CY       0.075000
     25 O16         -1.8030     1.1790     0.0050 o          1 6CY      -0.601100
     26 N28          0.6120    -4.7000    -0.2300 nb         1 6CY      -0.184000
     27 N31          2.6380    -4.7680    -1.5250 nb         1 6CY      -0.160000
     28 C32          2.8820    -3.4730    -1.2360 ca         1 6CY       0.026000
     29 C33          1.9840    -2.7330    -0.4270 ca         1 6CY      -0.129000
     30 C34          2.2800    -1.3890    -0.1060 ca         1 6CY      -0.071000
     31 C36          3.4420    -0.7480    -0.6000 cp         1 6CY      -0.021000
     32 C37          4.3110    -1.5010    -1.4240 ca         1 6CY      -0.080000
     33 C39          4.0370    -2.8430    -1.7310 ca         1 6CY      -0.087000
     34 N44          2.9160     2.9350     0.2120 nb         1 6CY      -0.752000
     35 N50          7.7220     3.3500     0.5520 n1         1 6CY      -0.448000
     36 O51          4.4190     4.6790     0.6840 os         1 6CY      -0.445300
     37 O57         -7.8180     0.1780    -2.1270 o          1 6CY      -0.602100
     38 H1          -4.5400     2.1380    -1.4060 h1         1 6CY       0.063950
     39 H2          -5.7130     3.1440    -0.5460 h1         1 6CY       0.063950
     40 H3           1.6620     1.3460    -0.2220 h4         1 6CY       0.042100
     41 H4           5.9060     0.4560    -0.1900 ha         1 6CY       0.133000
     42 H5           2.6610     5.3000     1.6530 h1         1 6CY       0.053367
     43 H6           3.7180     6.6100     1.0890 h1         1 6CY       0.053367
     44 H7           2.7460     5.6960    -0.0820 h1         1 6CY       0.053367
     45 H8          -7.8870     3.1960    -1.3040 hc         1 6CY       0.061700
     46 H9          -6.8330     3.0650    -2.6480 hc         1 6CY       0.061700
     47 H10         -8.5440     2.5250    -2.8540 hc         1 6CY       0.061700
     48 H11         -6.6670    -0.9260    -0.1040 h1         1 6CY       0.063950
     49 H12         -5.2150    -0.7410    -1.0940 h1         1 6CY       0.063950
     50 H13         -0.5570    -1.1030    -0.5440 ha         1 6CY       0.131000
     51 H14         -0.2730    -4.2250     2.4330 ha         1 6CY       0.133000
     52 H15         -2.0480    -3.1160     3.7580 ha         1 6CY       0.123000
     53 H16         -3.0660    -1.0000     2.9770 ha         1 6CY       0.123000
     54 H17          1.3400    -6.3660    -1.2340 h5         1 6CY       0.052100
     55 H18         -3.5780     2.8080     0.7300 h1         1 6CY       0.067200
     56 H19         -5.0260     2.3120     1.6080 h1         1 6CY       0.067200
     57 H20         -5.5520    -0.1110     1.8790 h1         1 6CY       0.067200
     58 H21         -4.5130    -1.3260     1.1220 h1         1 6CY       0.067200
     59 H22          1.6240    -0.8350     0.5590 ha         1 6CY       0.133000
     60 H23          5.2060    -1.0420    -1.8360 ha         1 6CY       0.121000
     61 H24          4.7280    -3.3990    -2.3600 ha         1 6CY       0.139000
@<TRIPOS>BOND
     1     1    21 1   
     2     1    22 1   
     3     1    38 1   
     4     1    39 1   
     5     2     3 ar  
     6     2     6 ar  
     7     2    31 1   
     8     3    34 ar  
     9     3    40 1   
    10     4     5 ar  
    11     4    34 ar  
    12     4    36 1   
    13     5     6 ar  
    14     5     7 1   
    15     6    41 1   
    16     7    35 3   
    17     8    36 1   
    18     8    42 1   
    19     8    43 1   
    20     8    44 1   
    21     9    10 1   
    22     9    21 1   
    23     9    37 2   
    24    10    45 1   
    25    10    46 1   
    26    10    47 1   
    27    11    21 1   
    28    11    24 1   
    29    11    48 1   
    30    11    49 1   
    31    12    13 1   
    32    12    23 1   
    33    12    25 2   
    34    13    14 ar  
    35    13    18 ar  
    36    14    15 ar  
    37    14    50 1   
    38    15    16 ar  
    39    15    19 1   
    40    16    17 ar  
    41    16    51 1   
    42    17    18 ar  
    43    17    52 1   
    44    18    53 1   
    45    19    26 ar  
    46    19    29 ar  
    47    20    26 ar  
    48    20    27 ar  
    49    20    54 1   
    50    22    23 1   
    51    22    55 1   
    52    22    56 1   
    53    23    24 1   
    54    24    57 1   
    55    24    58 1   
    56    27    28 ar  
    57    28    29 ar  
    58    28    33 ar  
    59    29    30 ar  
    60    30    31 ar  
    61    30    59 1   
    62    31    32 ar  
    63    32    33 ar  
    64    32    60 1   
    65    33    61 1   
@<TRIPOS>SUBSTRUCTURE
     1 6CY         1 TEMP              0 ****  ****    0 ROOT
