@<TRIPOS>MOLECULE
6D0
   54    56     1     0     0
SMALL
abcg2


@<TRIPOS>ATOM
      1 O1          -3.9620     3.2360     3.6420 o          1 6D0      -0.732000
      2 C1          -4.3350     2.3600     2.8370 c          1 6D0       0.694000
      3 C2          -3.9140     2.5160     1.3530 c3         1 6D0       0.013500
      4 N1          -3.2770     3.7790     1.0090 n8         1 6D0      -1.005200
      5 C3          -3.0100     1.3480     0.9520 c3         1 6D0      -0.055400
      6 C4          -2.7110     1.3280    -0.5400 c3         1 6D0       0.156800
      7 N2          -1.8010     0.2510    -0.9200 n3         1 6D0      -0.694600
      8 C5          -1.1650     0.4500    -2.2090 c3         1 6D0       0.149800
      9 C6          -0.3830     1.7570    -2.3580 c5         1 6D0       0.171300
     10 O2           0.3190     2.1280    -1.1700 os         1 6D0      -0.411000
     11 C7           1.6830     1.8680    -1.2880 c5         1 6D0       0.326300
     12 C8           1.8530     1.0680    -2.5830 c5         1 6D0       0.073300
     13 O3           3.1210     1.2900    -3.1230 oh         1 6D0      -0.693000
     14 C9           0.6930     1.6140    -3.4240 c5         1 6D0       0.104300
     15 O4           1.0020     2.8820    -3.9390 oh         1 6D0      -0.705000
     16 N3           2.1210     1.1680    -0.1010 na         1 6D0      -0.296300
     17 C10          1.3880     0.2860     0.6480 cc         1 6D0       0.445700
     18 N4           2.0520    -0.1990     1.6580 nd         1 6D0      -0.562100
     19 C11          3.2870     0.3910     1.5730 ca         1 6D0      -0.088600
     20 C12          4.4490     0.2950     2.3590 ca         1 6D0       0.441900
     21 N5           4.5260    -0.4840     3.4410 nv         1 6D0      -1.069900
     22 C13          3.3490     1.2500     0.4850 ca         1 6D0       0.120500
     23 N6           4.3950     1.9920     0.1230 nb         1 6D0      -0.211000
     24 C14          5.4210     1.8200     0.9370 ca         1 6D0       0.163900
     25 N7           5.5090     1.0310     2.0050 nb         1 6D0      -0.314000
     26 C15         -2.4730    -1.0240    -0.8990 c3         1 6D0       0.058800
     27 C16         -1.5670    -2.2290    -0.7990 c          1 6D0       0.568100
     28 C17         -2.2780    -3.5110    -1.1720 c3         1 6D0      -0.046400
     29 O5          -0.4160    -2.1910    -0.4510 o          1 6D0      -0.475100
     30 BR1         -1.2810    -5.0920    -0.6670 br         1 6D0      -0.228000
     31 O6          -5.0190     1.3490     3.1050 o          1 6D0      -0.732000
     32 H1          -4.8300     2.4420     0.7530 h1         1 6D0       0.031700
     33 H2          -3.9180     4.5330     1.2230 hn         1 6D0       0.386000
     34 H3          -2.5010     3.9230     1.6450 hn         1 6D0       0.386000
     35 H5          -2.0610     1.4110     1.4960 hc         1 6D0       0.049700
     36 H6          -3.4930     0.4240     1.2720 hc         1 6D0       0.049700
     37 H7          -3.6540     1.2750    -1.1110 h1         1 6D0       0.042200
     38 H8          -2.2610     2.2850    -0.7910 h1         1 6D0       0.042200
     39 H10         -0.4880    -0.3920    -2.3770 h1         1 6D0       0.023700
     40 H11         -1.8910     0.4260    -3.0390 h1         1 6D0       0.023700
     41 H12         -1.0670     2.5750    -2.5990 h1         1 6D0       0.101700
     42 H13          2.2700     2.7930    -1.3350 h2         1 6D0       0.111700
     43 H14          1.6860     0.0040    -2.3760 h1         1 6D0       0.065700
     44 H15          3.3190     0.5850    -3.7480 ho         1 6D0       0.505000
     45 H16          0.3940     0.9140    -4.2160 h1         1 6D0       0.046700
     46 H17          1.8880     2.8410    -4.3190 ho         1 6D0       0.517000
     47 H18          0.3610     0.0590     0.3980 h5         1 6D0       0.111800
     48 H19          3.7740    -1.1050     3.6820 hn         1 6D0       0.500500
     49 H20          5.3980    -0.5830     3.9310 hn         1 6D0       0.500500
     50 H21          6.3130     2.3950     0.7090 h5         1 6D0       0.034100
     51 H22         -3.1130    -1.0930    -0.0130 h1         1 6D0       0.062700
     52 H23         -3.1590    -1.1620    -1.7530 h1         1 6D0       0.062700
     53 H24         -3.2640    -3.5570    -0.7080 h1         1 6D0       0.088200
     54 H25         -2.4260    -3.5310    -2.2550 h1         1 6D0       0.088200
@<TRIPOS>BOND
     1     1     2 1   
     2     2     3 1   
     3     2    31 1   
     4     3     4 1   
     5     3     5 1   
     6     3    32 1   
     7     4    33 1   
     8     4    34 1   
     9     5     6 1   
    10     5    35 1   
    11     5    36 1   
    12     6     7 1   
    13     6    37 1   
    14     6    38 1   
    15     7     8 1   
    16     7    26 1   
    17     8     9 1   
    18     8    39 1   
    19     8    40 1   
    20     9    10 1   
    21     9    14 1   
    22     9    41 1   
    23    10    11 1   
    24    11    12 1   
    25    11    16 1   
    26    11    42 1   
    27    12    13 1   
    28    12    14 1   
    29    12    43 1   
    30    13    44 1   
    31    14    15 1   
    32    14    45 1   
    33    15    46 1   
    34    16    17 1   
    35    16    22 1   
    36    17    18 2   
    37    17    47 1   
    38    18    19 1   
    39    19    20 ar  
    40    19    22 ar  
    41    20    21 1   
    42    20    25 ar  
    43    21    48 1   
    44    21    49 1   
    45    22    23 ar  
    46    23    24 ar  
    47    24    25 ar  
    48    24    50 1   
    49    26    27 1   
    50    26    51 1   
    51    26    52 1   
    52    27    28 1   
    53    27    29 2   
    54    28    30 1   
    55    28    53 1   
    56    28    54 1   
@<TRIPOS>SUBSTRUCTURE
     1 6D0         1 TEMP              0 ****  ****    0 ROOT
