@<TRIPOS>MOLECULE
6D0
   54    56     1     0     0
SMALL
No Charge or Current Charge


@<TRIPOS>ATOM
      1 O1          -4.4950     3.1530     3.7010 o          1 6D0      -0.732000
      2 C1          -5.0840     2.8420     2.6730 c          1 6D0       0.694000
      3 C2          -4.3000     2.9300     1.2980 c3         1 6D0       0.013500
      4 N1          -3.5510     4.2150     1.0440 n8         1 6D0      -1.005200
      5 C3          -3.3710     1.6960     1.1350 c3         1 6D0      -0.055400
      6 C4          -2.8230     1.5010    -0.3020 c3         1 6D0       0.156800
      7 N2          -1.8700     0.3630    -0.4790 n3         1 6D0      -0.694600
      8 C5          -1.2110     0.3600    -1.8220 c3         1 6D0       0.149800
      9 C6          -0.3830     1.6290    -2.2170 c5         1 6D0       0.171300
     10 O2           0.5930     1.9490    -1.1890 os         1 6D0      -0.411000
     11 C7           1.8850     1.4210    -1.5670 c5         1 6D0       0.326300
     12 C8           1.6920     0.6790    -2.9420 c5         1 6D0       0.073300
     13 O3           2.8230     0.7800    -3.8340 oh         1 6D0      -0.693000
     14 C9           0.4670     1.4450    -3.5160 c5         1 6D0       0.104300
     15 O4           0.8920     2.6820    -4.1010 oh         1 6D0      -0.705000
     16 N3           2.4460     0.6600    -0.4510 na         1 6D0      -0.296300
     17 C10          2.1500    -0.6690    -0.1270 cc         1 6D0       0.445700
     18 N4           2.8910    -1.0960     0.9160 nd         1 6D0      -0.562100
     19 C11          3.6590     0.0240     1.2450 ca         1 6D0      -0.088600
     20 C12          4.6250     0.1840     2.2610 ca         1 6D0       0.441900
     21 N5           4.9600    -0.8140     3.1230 nv         1 6D0      -1.069900
     22 C13          3.3990     1.0930     0.4260 ca         1 6D0       0.120500
     23 N6           4.0350     2.2740     0.5610 nb         1 6D0      -0.211000
     24 C14          4.9480     2.3380     1.5600 ca         1 6D0       0.163900
     25 N7           5.2780     1.3460     2.4220 nb         1 6D0      -0.314000
     26 C15         -2.4660    -0.9770    -0.1300 c3         1 6D0       0.058800
     27 C16         -1.5380    -2.2220    -0.1940 c          1 6D0       0.568100
     28 C17         -1.6620    -3.1050    -1.4440 c3         1 6D0      -0.046400
     29 O5          -0.7300    -2.4770     0.6930 o          1 6D0      -0.475100
     30 Br1          0.0920    -3.4770    -2.3350 br         1 6D0      -0.228000
     31 O6          -6.2790     2.5790     2.6430 o          1 6D0      -0.732000
     32 H1          -5.0640     2.8580     0.5110 h1         1 6D0       0.031700
     33 H2          -4.2090     5.0030     1.1040 hn         1 6D0       0.386000
     34 H3          -2.9210     4.3820     1.8390 hn         1 6D0       0.386000
     35 H5          -2.5320     1.7700     1.8380 hc         1 6D0       0.049700
     36 H6          -3.9490     0.8120     1.4220 hc         1 6D0       0.049700
     37 H7          -3.6750     1.3800    -0.9850 h1         1 6D0       0.042200
     38 H8          -2.3260     2.4380    -0.5790 h1         1 6D0       0.042200
     39 H10         -0.5340    -0.4990    -1.8820 h1         1 6D0       0.023700
     40 H11         -1.9730     0.2060    -2.5970 h1         1 6D0       0.023700
     41 H12         -1.0760     2.4730    -2.3290 h1         1 6D0       0.101700
     42 H13          2.5650     2.2680    -1.7230 h2         1 6D0       0.111700
     43 H14          1.4340    -0.3770    -2.7860 h1         1 6D0       0.065700
     44 H15          3.5070     0.1340    -3.5330 ho         1 6D0       0.505000
     45 H16         -0.0680     0.8390    -4.2610 h1         1 6D0       0.046700
     46 H17          1.8060     2.4790    -4.4230 ho         1 6D0       0.517000
     47 H18          1.4160    -1.2530    -0.6680 h5         1 6D0       0.111800
     48 H19          4.6440    -1.7500     2.8820 hn         1 6D0       0.500500
     49 H20          5.8430    -0.7430     3.6210 hn         1 6D0       0.500500
     50 H21          5.4710     3.2850     1.6820 h5         1 6D0       0.034100
     51 H22         -2.8450    -0.9680     0.8990 h1         1 6D0       0.062700
     52 H23         -3.3300    -1.1800    -0.7770 h1         1 6D0       0.062700
     53 H24         -2.1060    -4.0670    -1.1630 h1         1 6D0       0.088200
     54 H25         -2.2960    -2.6110    -2.1890 h1         1 6D0       0.088200
@<TRIPOS>BOND
     1     1     2 1   
     2     2     3 1   
     3     2    31 1   
     4     3     4 1   
     5     3     5 1   
     6     3    32 1   
     7     4    33 1   
     8     4    34 1   
     9     5     6 1   
    10     5    35 1   
    11     5    36 1   
    12     6     7 1   
    13     6    37 1   
    14     6    38 1   
    15     7     8 1   
    16     7    26 1   
    17     8     9 1   
    18     8    39 1   
    19     8    40 1   
    20     9    10 1   
    21     9    14 1   
    22     9    41 1   
    23    10    11 1   
    24    11    12 1   
    25    11    16 1   
    26    11    42 1   
    27    12    13 1   
    28    12    14 1   
    29    12    43 1   
    30    13    44 1   
    31    14    15 1   
    32    14    45 1   
    33    15    46 1   
    34    16    17 1   
    35    16    22 1   
    36    17    18 2   
    37    17    47 1   
    38    18    19 1   
    39    19    20 ar  
    40    19    22 ar  
    41    20    21 1   
    42    20    25 ar  
    43    21    48 1   
    44    21    49 1   
    45    22    23 ar  
    46    23    24 ar  
    47    24    25 ar  
    48    24    50 1   
    49    26    27 1   
    50    26    51 1   
    51    26    52 1   
    52    27    28 1   
    53    27    29 2   
    54    28    30 1   
    55    28    53 1   
    56    28    54 1   
@<TRIPOS>SUBSTRUCTURE
     1 6D0         1 TEMP              0 ****  ****    0 ROOT
