@<TRIPOS>MOLECULE
6D1
   52    54     1     0     0
SMALL
bcc


@<TRIPOS>ATOM
      1 N1          -4.3800    -2.9370    -0.2750 n8         1 6D1      -0.894800
      2 C1          -4.7670    -1.6670    -0.8700 c3         1 6D1       0.011500
      3 C2          -3.6220    -0.6610    -0.7420 c3         1 6D1      -0.057400
      4 C3          -3.2080    -0.4090     0.7010 c3         1 6D1       0.175800
      5 N2          -2.1200     0.5510     0.8070 n3         1 6D1      -0.736600
      6 C4          -2.5290     1.9200     0.5680 c3         1 6D1       0.167800
      7 C5          -1.4190     2.6600    -0.1540 c3         1 6D1       0.065000
      8 CL1         -1.9020     4.3690    -0.4600 cl         1 6D1      -0.240400
      9 C6          -1.3470     0.4120     2.0230 c3         1 6D1       0.177800
     10 C7          -0.4090    -0.7840     1.9970 c5         1 6D1       0.143100
     11 O1           0.4360    -0.7250     0.8420 os         1 6D1      -0.374600
     12 C8           1.7810    -0.7320     1.2280 c5         1 6D1       0.262800
     13 C9           1.7870    -0.1700     2.6450 c5         1 6D1       0.052100
     14 O2           2.9720    -0.5140     3.2970 oh         1 6D1      -0.575800
     15 C10          0.5210    -0.8220     3.2090 c5         1 6D1       0.082100
     16 O3           0.7620    -2.1610     3.5590 oh         1 6D1      -0.578800
     17 N3           2.5520     0.0250     0.2800 na         1 6D1      -0.247000
     18 C11          2.4200     1.3510    -0.0320 cc         1 6D1       0.418700
     19 N4           3.2330     1.7490    -0.9620 nd         1 6D1      -0.560100
     20 C12          3.9450     0.6250    -1.2950 ca         1 6D1      -0.229200
     21 C13          4.9710     0.3830    -2.2270 ca         1 6D1       0.777200
     22 N5           5.4580     1.3330    -3.0270 nv         1 6D1      -0.959500
     23 N6           5.4620    -0.8590    -2.3100 nb         1 6D1      -0.834000
     24 C14          4.9660    -1.8050    -1.5170 ca         1 6D1       0.703900
     25 N7           4.0110    -1.7000    -0.6090 nb         1 6D1      -0.735000
     26 C15          3.5340    -0.4600    -0.5380 ca         1 6D1       0.471800
     27 C16         -5.2330    -1.7330    -2.3480 c          1 6D1       0.904600
     28 O4          -5.7280    -0.6830    -2.8100 o          1 6D1      -0.837300
     29 O5          -5.0740    -2.8080    -2.9580 o          1 6D1      -0.837300
     30 H1          -5.1570    -3.5820    -0.3570 hn         1 6D1       0.328800
     31 H2          -3.6560    -3.3470    -0.8560 hn         1 6D1       0.328800
     32 H4          -5.6120    -1.2780    -0.2870 h1         1 6D1       0.034700
     33 H5          -2.7480    -1.0200    -1.2980 hc         1 6D1       0.050700
     34 H6          -3.9330     0.2710    -1.2180 hc         1 6D1       0.050700
     35 H7          -4.0850    -0.0940     1.2920 h1         1 6D1       0.033200
     36 H8          -2.8810    -1.3560     1.1290 h1         1 6D1       0.033200
     37 H10         -3.4170     1.9300    -0.0650 h1         1 6D1       0.050700
     38 H11         -2.7980     2.4500     1.4920 h1         1 6D1       0.050700
     39 H12         -0.5030     2.7000     0.4320 h1         1 6D1       0.065700
     40 H13         -1.2050     2.2010    -1.1170 h1         1 6D1       0.065700
     41 H14         -0.7540     1.3200     2.1700 h1         1 6D1       0.021700
     42 H15         -1.9860     0.3220     2.9170 h1         1 6D1       0.021700
     43 H16         -0.9900    -1.7120     1.9580 h1         1 6D1       0.106700
     44 H17          2.2050    -1.7430     1.2250 h2         1 6D1       0.115700
     45 H18          1.6420     0.9180     2.6160 h1         1 6D1       0.048700
     46 H19          3.0990     0.0760     4.0460 ho         1 6D1       0.409000
     47 H20          0.1100    -0.2510     4.0520 h1         1 6D1       0.049700
     48 H21          1.5680    -2.1900     4.0880 ho         1 6D1       0.415000
     49 H22          1.7010     1.9840     0.4660 h5         1 6D1       0.064800
     50 H23          5.1420     2.2840    -2.9550 hn         1 6D1       0.447800
     51 H24          6.2260     1.1310    -3.6430 hn         1 6D1       0.447800
     52 H25          5.4060    -2.7900    -1.6360 h5         1 6D1       0.042100
@<TRIPOS>BOND
     1     1     2 1   
     2     1    30 1   
     3     1    31 1   
     4     2     3 1   
     5     2    27 1   
     6     2    32 1   
     7     3     4 1   
     8     3    33 1   
     9     3    34 1   
    10     4     5 1   
    11     4    35 1   
    12     4    36 1   
    13     5     6 1   
    14     5     9 1   
    15     6     7 1   
    16     6    37 1   
    17     6    38 1   
    18     7     8 1   
    19     7    39 1   
    20     7    40 1   
    21     9    10 1   
    22     9    41 1   
    23     9    42 1   
    24    10    11 1   
    25    10    15 1   
    26    10    43 1   
    27    11    12 1   
    28    12    13 1   
    29    12    17 1   
    30    12    44 1   
    31    13    14 1   
    32    13    15 1   
    33    13    45 1   
    34    14    46 1   
    35    15    16 1   
    36    15    47 1   
    37    16    48 1   
    38    17    18 1   
    39    17    26 1   
    40    18    19 2   
    41    18    49 1   
    42    19    20 1   
    43    20    21 ar  
    44    20    26 ar  
    45    21    22 1   
    46    21    23 ar  
    47    22    50 1   
    48    22    51 1   
    49    23    24 ar  
    50    24    25 ar  
    51    24    52 1   
    52    25    26 ar  
    53    27    28 1   
    54    27    29 1   
@<TRIPOS>SUBSTRUCTURE
     1 6D1         1 TEMP              0 ****  ****    0 ROOT
