@<TRIPOS>MOLECULE
6D1
   52    54     1     0     0
SMALL
No Charge or Current Charge


@<TRIPOS>ATOM
      1 N1          -3.5050    -3.2390    -0.7540 n8         1 6D1      -1.005200
      2 C1          -3.8580    -1.9180    -1.3940 c3         1 6D1       0.011500
      3 C2          -2.7040    -0.8890    -1.2390 c3         1 6D1      -0.057400
      4 C3          -2.4000    -0.4920     0.2290 c3         1 6D1       0.175800
      5 N2          -1.2520     0.4450     0.4190 n3         1 6D1      -0.736600
      6 C4          -1.4760     1.7850    -0.2120 c3         1 6D1       0.167800
      7 C5          -0.2430     2.7190    -0.2760 c3         1 6D1       0.141600
      8 Cl1         -0.6200     4.2590    -1.1750 cl         1 6D1      -0.317000
      9 C6          -0.8170     0.5500     1.8490 c3         1 6D1       0.177800
     10 C7          -0.4030    -0.7790     2.5770 c5         1 6D1       0.166300
     11 O1           0.6080    -1.5100     1.8430 os         1 6D1      -0.421000
     12 C8           1.9010    -0.9270     2.1260 c5         1 6D1       0.315300
     13 C9           1.7410    -0.2040     3.5300 c5         1 6D1       0.075300
     14 O2           2.6770    -0.6550     4.5360 oh         1 6D1      -0.698000
     15 C10          0.2810    -0.5660     3.9590 c5         1 6D1       0.105300
     16 O3           0.3130    -1.7500     4.7610 oh         1 6D1      -0.701000
     17 N3           2.3490    -0.1030     0.9910 na         1 6D1      -0.276300
     18 C11          3.1080     1.0700     1.0850 cc         1 6D1       0.418700
     19 N4           3.3860     1.5830    -0.1270 nd         1 6D1      -0.560100
     20 C12          2.7800     0.6780    -1.0030 ca         1 6D1      -0.098600
     21 C13          2.7370     0.6910    -2.4120 ca         1 6D1       0.448900
     22 N5           3.3240     1.6670    -3.1540 nv         1 6D1      -1.069900
     23 N6           2.1150    -0.2790    -3.0990 nb         1 6D1      -0.308000
     24 C14          1.5390    -1.2550    -2.3570 ca         1 6D1       0.177900
     25 N7           1.5320    -1.3480    -1.0060 nb         1 6D1      -0.209000
     26 C15          2.1570    -0.3530    -0.3440 ca         1 6D1       0.143500
     27 C16         -4.3290    -1.9820    -2.9060 c          1 6D1       0.694000
     28 O4          -5.4090    -1.4850    -3.1970 o          1 6D1      -0.732000
     29 O5          -3.6550    -2.6250    -3.7000 o          1 6D1      -0.732000
     30 H1          -4.3100    -3.8720    -0.8300 hn         1 6D1       0.384000
     31 H2          -2.7950    -3.6980    -1.3380 hn         1 6D1       0.384000
     32 H4          -4.7140    -1.5210    -0.8290 h1         1 6D1       0.034700
     33 H5          -1.7930    -1.2830    -1.7050 hc         1 6D1       0.050700
     34 H6          -2.9890     0.0040    -1.8050 hc         1 6D1       0.050700
     35 H7          -3.3080    -0.0600     0.6720 h1         1 6D1       0.033200
     36 H8          -2.2010    -1.4270     0.7660 h1         1 6D1       0.033200
     37 H10         -1.8080     1.6640    -1.2490 h1         1 6D1       0.050700
     38 H11         -2.2800     2.3140     0.3180 h1         1 6D1       0.050700
     39 H12          0.0940     3.0030     0.7270 h1         1 6D1       0.065700
     40 H13          0.5750     2.2210    -0.8080 h1         1 6D1       0.065700
     41 H14          0.0350     1.2350     1.9210 h1         1 6D1       0.021700
     42 H15         -1.6250     1.0060     2.4370 h1         1 6D1       0.021700
     43 H16         -1.2950    -1.4080     2.6850 h1         1 6D1       0.106700
     44 H17          2.6420    -1.7340     2.2050 h2         1 6D1       0.115700
     45 H18          1.8100     0.8860     3.4160 h1         1 6D1       0.048700
     46 H19          3.4990    -0.1130     4.4560 ho         1 6D1       0.508000
     47 H20         -0.1880     0.2570     4.5170 h1         1 6D1       0.049700
     48 H21          1.2660    -1.7790     5.0380 ho         1 6D1       0.514000
     49 H22          3.4270     1.4870     2.0330 h5         1 6D1       0.064800
     50 H23          3.9780     2.2760    -2.6680 hn         1 6D1       0.503000
     51 H24          3.5190     1.4760    -4.1330 hn         1 6D1       0.503000
     52 H25          1.0330    -2.0500    -2.9020 h5         1 6D1       0.042100
@<TRIPOS>BOND
     1     1     2 1   
     2     1    30 1   
     3     1    31 1   
     4     2     3 1   
     5     2    27 1   
     6     2    32 1   
     7     3     4 1   
     8     3    33 1   
     9     3    34 1   
    10     4     5 1   
    11     4    35 1   
    12     4    36 1   
    13     5     6 1   
    14     5     9 1   
    15     6     7 1   
    16     6    37 1   
    17     6    38 1   
    18     7     8 1   
    19     7    39 1   
    20     7    40 1   
    21     9    10 1   
    22     9    41 1   
    23     9    42 1   
    24    10    11 1   
    25    10    15 1   
    26    10    43 1   
    27    11    12 1   
    28    12    13 1   
    29    12    17 1   
    30    12    44 1   
    31    13    14 1   
    32    13    15 1   
    33    13    45 1   
    34    14    46 1   
    35    15    16 1   
    36    15    47 1   
    37    16    48 1   
    38    17    18 1   
    39    17    26 1   
    40    18    19 2   
    41    18    49 1   
    42    19    20 1   
    43    20    21 ar  
    44    20    26 ar  
    45    21    22 1   
    46    21    23 ar  
    47    22    50 1   
    48    22    51 1   
    49    23    24 ar  
    50    24    25 ar  
    51    24    52 1   
    52    25    26 ar  
    53    27    28 1   
    54    27    29 1   
@<TRIPOS>SUBSTRUCTURE
     1 6D1         1 TEMP              0 ****  ****    0 ROOT
