@<TRIPOS>MOLECULE
6D2
   62    64     1     0     0
SMALL
No Charge or Current Charge


@<TRIPOS>ATOM
      1 C11          3.3120    -0.9840     0.4670 c3         1 6D2      -0.096400
      2 C10          2.6720    -0.7810    -0.9250 c3         1 6D2       0.188800
      3 C2          -3.9240    -2.6870     2.0350 ca         1 6D2       0.162900
      4 C6          -3.6870    -0.5410     2.7950 ca         1 6D2       0.444900
      5 C5          -3.0450    -0.2100     1.5840 ca         1 6D2      -0.090600
      6 C4          -2.8830    -1.1970     0.6460 ca         1 6D2       0.121500
      7 C12          4.1530    -2.2720     0.5350 c3         1 6D2       0.217800
      8 C8          -2.0380     0.7380    -0.0660 cc         1 6D2       0.441700
      9 N6          -3.9030     0.3630     3.7870 nv         1 6D2      -1.070900
     10 N1          -4.1340    -1.7860     3.0260 nb         1 6D2      -0.320000
     11 N3          -3.3170    -2.4570     0.8460 nb         1 6D2      -0.221000
     12 ND           1.6600     0.3110    -1.0130 n3         1 6D2      -0.730600
     13 CG           2.2360     1.6540    -0.7030 c3         1 6D2       0.174800
     14 CB           1.2170     2.8140    -0.5710 c3         1 6D2      -0.101400
     15 CA           1.8480     4.1680    -0.1490 c3         1 6D2       0.016500
     16 C            0.8700     5.3730    -0.4830 c          1 6D2       0.725000
     17 O           -0.1820     5.4640     0.1390 o          1 6D2      -0.730500
     18 N            2.3570     4.0960     1.2700 n8         1 6D2      -0.989200
     19 C9           0.9040     0.2880    -2.3080 c3         1 6D2       0.171800
     20 C13          0.2210    -1.0620    -2.7280 c5         1 6D2       0.170300
     21 C3          -0.8580    -0.9070    -3.8470 c5         1 6D2       0.101300
     22 C7          -2.0720    -0.4120    -3.0050 c5         1 6D2       0.076300
     23 O2          -3.3110    -0.6740    -3.6990 oh         1 6D2      -0.699000
     24 C1          -1.8890    -1.2400    -1.6750 c5         1 6D2       0.318300
     25 N9          -2.2480    -0.6030    -0.4080 na         1 6D2      -0.289300
     26 N7          -2.5280     1.0170     1.1580 nd         1 6D2      -0.522100
     27 O4          -0.5070    -1.6610    -1.6240 os         1 6D2      -0.425000
     28 O3          -1.1920    -2.1390    -4.4960 oh         1 6D2      -0.713000
     29 N10          5.8690    -4.3810     1.4670 n2         1 6D2      -0.897100
     30 N11          5.9070    -3.2140     3.4430 nv         1 6D2      -1.069200
     31 N12          4.7430    -2.4380     1.8710 nu         1 6D2      -0.894400
     32 OXT          1.2310     6.2020    -1.3090 o          1 6D2      -0.730500
     33 H112         3.9560    -0.1330     0.7110 hc         1 6D2       0.056700
     34 H111         2.5180    -1.0310     1.2220 hc         1 6D2       0.056700
     35 H102         3.4720    -0.6090    -1.6590 h1         1 6D2       0.021200
     36 H101         2.2030    -1.7370    -1.1850 h1         1 6D2       0.021200
     37 H122         3.5120    -3.1340     0.3000 h1         1 6D2       0.046700
     38 H121         4.9470    -2.2250    -0.2240 h1         1 6D2       0.046700
     39 H61         -3.7780     1.3430     3.5470 hn         1 6D2       0.504000
     40 H62         -4.6100     0.1500     4.4850 hn         1 6D2       0.504000
     41 HG3          2.7770     1.6060     0.2490 h1         1 6D2       0.020700
     42 HG2          2.9730     1.9230    -1.4730 h1         1 6D2       0.020700
     43 HB2          0.7260     2.9710    -1.5380 hc         1 6D2       0.050200
     44 HB3          0.4340     2.5350     0.1440 hc         1 6D2       0.050200
     45 HA           2.7300     4.3160    -0.7880 h1         1 6D2       0.038700
     46 H            1.5510     4.0440     1.9050 hn         1 6D2       0.377000
     47 H2           2.8430     3.2040     1.4120 hn         1 6D2       0.377000
     48 H5'1         0.1190     1.0500    -2.2820 h1         1 6D2       0.038700
     49 H5'2         1.5790     0.5760    -3.1260 h1         1 6D2       0.038700
     50 H4'1         1.0100    -1.7550    -3.0460 h1         1 6D2       0.077700
     51 H3'1        -0.5580    -0.1560    -4.5920 h1         1 6D2       0.047700
     52 H2'1        -1.9730     0.6650    -2.8120 h1         1 6D2       0.070700
     53 H2'2        -4.0280    -0.1730    -3.2400 ho         1 6D2       0.508000
     54 H1'1        -2.5130    -2.1410    -1.7370 h2         1 6D2       0.102700
     55 H3'2        -2.1760    -2.0790    -4.5890 ho         1 6D2       0.515000
     56 H104         6.5180    -4.9790     1.9880 hn         1 6D2       0.367400
     57 H113         6.4000    -3.9920     3.8590 hn         1 6D2       0.449500
     58 H4           5.1540    -2.8640     4.0180 hn         1 6D2       0.449500
     59 H123         5.0010    -1.5930     2.3610 hn         1 6D2       0.471000
     60 H21         -4.2820    -3.7000     2.2120 h5         1 6D2       0.030100
     61 C14          5.5080    -3.4580     2.2230 c2         1 6D2       0.786100
     62 H81         -1.5480     1.4420    -0.7280 h5         1 6D2       0.112800
@<TRIPOS>BOND
     1     1     2 1   
     2     1     7 1   
     3     1    33 1   
     4     1    34 1   
     5     2    12 1   
     6     2    35 1   
     7     2    36 1   
     8     3    10 ar  
     9     3    11 ar  
    10     3    60 1   
    11     4     5 ar  
    12     4     9 1   
    13     4    10 ar  
    14     5     6 ar  
    15     5    26 1   
    16     6    11 ar  
    17     6    25 1   
    18     7    31 1   
    19     7    37 1   
    20     7    38 1   
    21     8    25 1   
    22     8    26 2   
    23     8    62 1   
    24     9    39 1   
    25     9    40 1   
    26    12    13 1   
    27    12    19 1   
    28    13    14 1   
    29    13    41 1   
    30    13    42 1   
    31    14    15 1   
    32    14    43 1   
    33    14    44 1   
    34    15    16 1   
    35    15    18 1   
    36    15    45 1   
    37    16    17 1   
    38    16    32 1   
    39    18    46 1   
    40    18    47 1   
    41    19    20 1   
    42    19    48 1   
    43    19    49 1   
    44    20    21 1   
    45    20    27 1   
    46    20    50 1   
    47    21    22 1   
    48    21    28 1   
    49    21    51 1   
    50    22    23 1   
    51    22    24 1   
    52    22    52 1   
    53    23    53 1   
    54    24    25 1   
    55    24    27 1   
    56    24    54 1   
    57    28    55 1   
    58    29    56 1   
    59    29    61 2   
    60    30    57 1   
    61    30    58 1   
    62    30    61 1   
    63    31    59 1   
    64    31    61 1   
@<TRIPOS>SUBSTRUCTURE
     1 6D2         1 TEMP              0 ****  ****    0 ROOT
