@<TRIPOS>MOLECULE
6D2
   62    64     1     0     0
SMALL
abcg2


@<TRIPOS>ATOM
      1 C11          3.7690    -1.2900     0.3140 c3         1 6D2      -0.096400
      2 C10          3.2420    -0.8860    -1.0550 c3         1 6D2       0.188800
      3 C2          -5.1230    -1.7580     1.5740 ca         1 6D2       0.162900
      4 C6          -5.0920     0.4630     2.1700 ca         1 6D2       0.444900
      5 C5          -4.0680     0.6410     1.2220 ca         1 6D2      -0.090600
      6 C4          -3.6760    -0.4860     0.5200 ca         1 6D2       0.121500
      7 C12          4.9970    -2.1810     0.1950 c3         1 6D2       0.217800
      8 C8          -2.5370     1.2840    -0.0850 cc         1 6D2       0.441700
      9 N6          -5.5620     1.4620     2.9180 nv         1 6D2      -1.070900
     10 N1          -5.6020    -0.7650     2.3190 nb         1 6D2      -0.320000
     11 N3          -4.1720    -1.7140     0.6570 nb         1 6D2      -0.221000
     12 ND           2.0850    -0.0120    -0.9810 n3         1 6D2      -0.730600
     13 CG           2.4040     1.3600    -0.6240 c3         1 6D2       0.174800
     14 CB           1.2010     2.0730    -0.0200 c3         1 6D2      -0.101400
     15 CA           1.4090     3.5750     0.2040 c3         1 6D2       0.016500
     16 C            0.0560     4.1960     0.6240 c          1 6D2       0.725000
     17 O           -0.0500     4.6200     1.7910 o          1 6D2      -0.730500
     18 N            2.4610     3.9210     1.1470 n8         1 6D2      -0.989200
     19 C9           1.2540    -0.1060    -2.1660 c3         1 6D2       0.171800
     20 C13          0.1930    -1.1850    -2.0370 c5         1 6D2       0.170300
     21 C3          -0.7640    -1.2120    -3.2300 c5         1 6D2       0.101300
     22 C7          -1.9570    -0.4170    -2.6890 c5         1 6D2       0.076300
     23 O2          -3.1810    -0.6960    -3.3000 oh         1 6D2      -0.699000
     24 C1          -1.9640    -0.8930    -1.2430 c5         1 6D2       0.318300
     25 N9          -2.6910    -0.0580    -0.3270 na         1 6D2      -0.289300
     26 N7          -3.3410     1.7360     0.8300 nd         1 6D2      -0.522100
     27 O4          -0.6140    -0.9400    -0.8770 os         1 6D2      -0.425000
     28 O3          -1.1270    -2.5420    -3.5010 oh         1 6D2      -0.713000
     29 N10          7.1000    -3.9190     0.6230 n2         1 6D2      -0.897100
     30 N11          7.1000    -3.3510     2.9270 nv         1 6D2      -1.069200
     31 N12          5.4860    -2.5350     1.5080 nu         1 6D2      -0.894400
     32 OXT         -0.8370     4.1940    -0.2500 o          1 6D2      -0.730500
     33 H112         4.0320    -0.4030     0.8980 hc         1 6D2       0.056700
     34 H111         2.9810    -1.8100     0.8630 hc         1 6D2       0.056700
     35 H102         4.0540    -0.4390    -1.6540 h1         1 6D2       0.021200
     36 H101         2.9450    -1.7950    -1.5840 h1         1 6D2       0.021200
     37 H122         4.7410    -3.0930    -0.3470 h1         1 6D2       0.046700
     38 H121         5.7670    -1.6720    -0.3980 h1         1 6D2       0.046700
     39 H61         -5.2220     2.4000     2.8040 hn         1 6D2       0.504000
     40 H62         -6.3230     1.3050     3.5560 hn         1 6D2       0.504000
     41 HG3          3.2180     1.3430     0.1030 h1         1 6D2       0.020700
     42 HG2          2.7790     1.9310    -1.4910 h1         1 6D2       0.020700
     43 HB2          0.3510     1.9540    -0.6920 hc         1 6D2       0.050200
     44 HB3          0.9270     1.5810     0.9190 hc         1 6D2       0.050200
     45 HA           1.6720     4.0100    -0.7690 h1         1 6D2       0.038700
     46 H            2.1210     3.7560     2.0860 hn         1 6D2       0.377000
     47 H2           3.2680     3.3240     1.0170 hn         1 6D2       0.377000
     48 H5'1         0.7660     0.8540    -2.3530 h1         1 6D2       0.038700
     49 H5'2         1.8480    -0.3120    -3.0690 h1         1 6D2       0.038700
     50 H4'1         0.6750    -2.1630    -1.9290 h1         1 6D2       0.077700
     51 H3'1        -0.3220    -0.7290    -4.1120 h1         1 6D2       0.047700
     52 H2'1        -1.7180     0.6540    -2.7280 h1         1 6D2       0.070700
     53 H2'2        -3.2670    -0.1490    -4.0870 ho         1 6D2       0.508000
     54 H1'1        -2.4390    -1.8800    -1.1830 h2         1 6D2       0.102700
     55 H3'2        -1.9410    -2.5300    -4.0170 ho         1 6D2       0.515000
     56 H104         7.8770    -4.5050     0.9040 hn         1 6D2       0.367400
     57 H113         7.7330    -4.1100     3.1220 hn         1 6D2       0.449500
     58 H4           6.4280    -3.2280     3.6680 hn         1 6D2       0.449500
     59 H123         5.3820    -1.8130     2.2050 hn         1 6D2       0.471000
     60 H21         -5.5780    -2.7280     1.7440 h5         1 6D2       0.030100
     61 C14          6.6010    -3.3190     1.6410 c2         1 6D2       0.786100
     62 H81         -1.8100     1.8930    -0.6010 h5         1 6D2       0.112800
@<TRIPOS>BOND
     1     1     2 1   
     2     1     7 1   
     3     1    33 1   
     4     1    34 1   
     5     2    12 1   
     6     2    35 1   
     7     2    36 1   
     8     3    10 ar  
     9     3    11 ar  
    10     3    60 1   
    11     4     5 ar  
    12     4     9 1   
    13     4    10 ar  
    14     5     6 ar  
    15     5    26 1   
    16     6    11 ar  
    17     6    25 1   
    18     7    31 1   
    19     7    37 1   
    20     7    38 1   
    21     8    25 1   
    22     8    26 2   
    23     8    62 1   
    24     9    39 1   
    25     9    40 1   
    26    12    13 1   
    27    12    19 1   
    28    13    14 1   
    29    13    41 1   
    30    13    42 1   
    31    14    15 1   
    32    14    43 1   
    33    14    44 1   
    34    15    16 1   
    35    15    18 1   
    36    15    45 1   
    37    16    17 1   
    38    16    32 1   
    39    18    46 1   
    40    18    47 1   
    41    19    20 1   
    42    19    48 1   
    43    19    49 1   
    44    20    21 1   
    45    20    27 1   
    46    20    50 1   
    47    21    22 1   
    48    21    28 1   
    49    21    51 1   
    50    22    23 1   
    51    22    24 1   
    52    22    52 1   
    53    23    53 1   
    54    24    25 1   
    55    24    27 1   
    56    24    54 1   
    57    28    55 1   
    58    29    56 1   
    59    29    61 2   
    60    30    57 1   
    61    30    58 1   
    62    30    61 1   
    63    31    59 1   
    64    31    61 1   
@<TRIPOS>SUBSTRUCTURE
     1 6D2         1 TEMP              0 ****  ****    0 ROOT
