@<TRIPOS>MOLECULE
6D3
   71    74     1     0     0
SMALL
No Charge or Current Charge


@<TRIPOS>ATOM
      1 O1           0.6460    -5.2770    -2.7740 o          1 6D3      -0.728000
      2 C1           1.7440    -4.7470    -2.6570 c          1 6D3       0.694000
      3 C2           2.0540    -3.4600    -3.5290 c3         1 6D3       0.010500
      4 N1           1.8160    -3.5920    -5.0130 n8         1 6D3      -1.008200
      5 C3           1.3060    -2.2280    -2.9530 c3         1 6D3      -0.060400
      6 C4           1.7880    -0.8740    -3.5250 c3         1 6D3       0.172800
      7 N2           1.2620     0.3460    -2.8490 n3         1 6D3      -0.746600
      8 C5           1.9790     1.5740    -3.3040 c3         1 6D3       0.163800
      9 C6           1.6980     2.9320    -2.5560 c5         1 6D3       0.161300
     10 O2           1.0840     2.7480    -1.2540 os         1 6D3      -0.413000
     11 C7           2.1180     2.6120    -0.2540 c5         1 6D3       0.326300
     12 C8           3.4840     2.9560    -0.9660 c5         1 6D3       0.075300
     13 O3           4.3760     3.7700    -0.1760 oh         1 6D3      -0.694000
     14 C9           2.9930     3.7370    -2.2230 c5         1 6D3       0.105300
     15 O4           2.7470     5.1070    -1.8840 oh         1 6D3      -0.706000
     16 N3           1.9770     1.3160     0.4130 na         1 6D3      -0.305300
     17 C10          2.5640     0.1080     0.0160 cc         1 6D3       0.424700
     18 N4           2.2140    -0.9020     0.8370 nd         1 6D3      -0.534100
     19 C11          1.3570    -0.2880     1.7550 ca         1 6D3      -0.088600
     20 C12          0.6570    -0.8480     2.8440 ca         1 6D3       0.445900
     21 N5           0.7410    -2.1630     3.1760 nv         1 6D3      -1.068900
     22 C13          1.2080     1.0530     1.5110 ca         1 6D3       0.112500
     23 N6           0.4240     1.8400     2.2740 nb         1 6D3      -0.216000
     24 C14         -0.2060     1.2210     3.3010 ca         1 6D3       0.160900
     25 N7          -0.1280    -0.0920     3.6280 nb         1 6D3      -0.321000
     26 O5           2.6530    -5.2310    -1.9960 o          1 6D3      -0.728000
     27 C15         -0.2210     0.4670    -2.8790 c3         1 6D3       0.188800
     28 C16         -0.8770     0.0010    -1.5650 c3         1 6D3      -0.107400
     29 C17         -2.4020     0.2110    -1.5330 c3         1 6D3       0.086600
     30 N8          -2.9860    -0.1360    -0.2280 na         1 6D3       0.111800
     31 C18         -2.9370     0.6050     0.9260 cc         1 6D3      -0.209000
     32 C19         -3.6070    -0.1700     1.8290 cd         1 6D3       0.241300
     33 N9          -4.0160    -1.3370     1.2120 nd         1 6D3      -0.371000
     34 N10         -3.6420    -1.3160    -0.0390 nc         1 6D3      -0.226800
     35 C20         -3.8610     0.1080     3.2890 c3         1 6D3      -0.079700
     36 C21         -5.3260     0.5020     3.6100 c3         1 6D3       0.013500
     37 N11         -5.6750     1.8170     2.9570 n8         1 6D3      -1.000200
     38 C22         -5.5920     0.4100     5.1690 c          1 6D3       0.693000
     39 O6          -5.1390     1.2890     5.8910 o          1 6D3      -0.737500
     40 O7          -6.3310    -0.4740     5.5800 o          1 6D3      -0.737500
     41 H1           3.1290    -3.2640    -3.4060 h1         1 6D3       0.032700
     42 H2           2.3750    -4.3750    -5.3730 hn         1 6D3       0.381500
     43 H3           0.8500    -3.9140    -5.1570 hn         1 6D3       0.381500
     44 H5           0.2310    -2.3470    -3.1300 hc         1 6D3       0.056200
     45 H6           1.4530    -2.2130    -1.8660 hc         1 6D3       0.056200
     46 H7           2.8850    -0.8680    -3.4560 h1         1 6D3       0.027700
     47 H8           1.5390    -0.8340    -4.5940 h1         1 6D3       0.027700
     48 H10          3.0590     1.3830    -3.2480 h1         1 6D3       0.025200
     49 H11          1.7660     1.7400    -4.3690 h1         1 6D3       0.025200
     50 H12          1.0130     3.5180    -3.1820 h1         1 6D3       0.096700
     51 H13          1.9330     3.3610     0.5270 h2         1 6D3       0.113700
     52 H14          3.9990     2.0390    -1.2850 h1         1 6D3       0.061700
     53 H15          4.8280     3.1810     0.4750 ho         1 6D3       0.504000
     54 H16          3.7250     3.6770    -3.0410 h1         1 6D3       0.047700
     55 H17          3.3650     5.2620    -1.1250 ho         1 6D3       0.515000
     56 H18          3.2060     0.0250    -0.8530 h5         1 6D3       0.117800
     57 H19          1.4880    -2.6970     2.7400 hn         1 6D3       0.505500
     58 H20          0.4670    -2.4410     4.1140 hn         1 6D3       0.505500
     59 H21         -0.8410     1.8430     3.9290 h5         1 6D3       0.030100
     60 H23         -0.5190     1.5110    -3.0440 h1         1 6D3       0.023700
     61 H24         -0.6380    -0.1070    -3.7180 h1         1 6D3       0.023700
     62 H25         -0.6570    -1.0540    -1.3780 hc         1 6D3       0.077700
     63 H26         -0.4360     0.5650    -0.7380 hc         1 6D3       0.077700
     64 H27         -2.6300     1.2630    -1.7410 h1         1 6D3       0.053200
     65 H28         -2.8740    -0.3990    -2.3140 h1         1 6D3       0.053200
     66 H29         -2.4560     1.5690     1.0110 h4         1 6D3       0.161000
     67 H30         -3.6040    -0.7880     3.8670 hc         1 6D3       0.057200
     68 H31         -3.1880     0.8970     3.6440 hc         1 6D3       0.057200
     69 H32         -5.9710    -0.2610     3.1490 h1         1 6D3       0.046700
     70 H33         -6.6680     2.0190     3.1230 hn         1 6D3       0.377000
     71 H34         -5.1960     2.5670     3.4690 hn         1 6D3       0.377000
@<TRIPOS>BOND
     1     1     2 1   
     2     2     3 1   
     3     2    26 1   
     4     3     4 1   
     5     3     5 1   
     6     3    41 1   
     7     4    42 1   
     8     4    43 1   
     9     5     6 1   
    10     5    44 1   
    11     5    45 1   
    12     6     7 1   
    13     6    46 1   
    14     6    47 1   
    15     7     8 1   
    16     7    27 1   
    17     8     9 1   
    18     8    48 1   
    19     8    49 1   
    20     9    10 1   
    21     9    14 1   
    22     9    50 1   
    23    10    11 1   
    24    11    12 1   
    25    11    16 1   
    26    11    51 1   
    27    12    13 1   
    28    12    14 1   
    29    12    52 1   
    30    13    53 1   
    31    14    15 1   
    32    14    54 1   
    33    15    55 1   
    34    16    17 1   
    35    16    22 1   
    36    17    18 2   
    37    17    56 1   
    38    18    19 1   
    39    19    20 ar  
    40    19    22 ar  
    41    20    21 1   
    42    20    25 ar  
    43    21    57 1   
    44    21    58 1   
    45    22    23 ar  
    46    23    24 ar  
    47    24    25 ar  
    48    24    59 1   
    49    27    28 1   
    50    27    60 1   
    51    27    61 1   
    52    28    29 1   
    53    28    62 1   
    54    28    63 1   
    55    29    30 1   
    56    29    64 1   
    57    29    65 1   
    58    30    31 1   
    59    30    34 1   
    60    31    32 2   
    61    31    66 1   
    62    32    33 1   
    63    32    35 1   
    64    33    34 2   
    65    35    36 1   
    66    35    67 1   
    67    35    68 1   
    68    36    37 1   
    69    36    38 1   
    70    36    69 1   
    71    37    70 1   
    72    37    71 1   
    73    38    39 1   
    74    38    40 1   
@<TRIPOS>SUBSTRUCTURE
     1 6D3         1 TEMP              0 ****  ****    0 ROOT
