@<TRIPOS>MOLECULE
6D3
   71    74     1     0     0
SMALL
abcg2


@<TRIPOS>ATOM
      1 O1           0.3200    -5.5210    -3.2560 o          1 6D3      -0.728000
      2 C1           1.0240    -4.7300    -2.5980 c          1 6D3       0.694000
      3 C2           1.5100    -3.4400    -3.3080 c3         1 6D3       0.010500
      4 N1           1.3050    -3.4040    -4.7490 n8         1 6D3      -1.008200
      5 C3           0.8510    -2.2250    -2.6510 c3         1 6D3      -0.060400
      6 C4           1.4090    -0.9020    -3.1520 c3         1 6D3       0.172800
      7 N2           0.8500     0.2510    -2.4580 n3         1 6D3      -0.746600
      8 C5           1.6500     1.4380    -2.6570 c3         1 6D3       0.163800
      9 C6           1.3120     2.5880    -1.7080 c5         1 6D3       0.161300
     10 O2           1.1630     2.1660    -0.3500 os         1 6D3      -0.413000
     11 C7           2.3350     2.3720     0.3700 c5         1 6D3       0.326300
     12 C8           3.3530     2.9870    -0.6030 c5         1 6D3       0.075300
     13 O3           4.1630     3.9080     0.0660 oh         1 6D3      -0.694000
     14 C9           2.4380     3.6090    -1.6680 c5         1 6D3       0.105300
     15 O4           1.9290     4.8410    -1.2310 oh         1 6D3      -0.706000
     16 N3           2.7700     1.1020     0.9250 na         1 6D3      -0.305300
     17 C10          2.5170    -0.1440     0.4170 cc         1 6D3       0.424700
     18 N4           3.0670    -1.1010     1.1100 nd         1 6D3      -0.534100
     19 C11          3.7170    -0.4550     2.1280 ca         1 6D3      -0.088600
     20 C12          4.4870    -0.9120     3.2130 ca         1 6D3       0.445900
     21 N5           4.7310    -2.2070     3.4280 nv         1 6D3      -1.068900
     22 C13          3.5420     0.9190     2.0340 ca         1 6D3       0.112500
     23 N6           4.0250     1.8360     2.8710 nb         1 6D3      -0.216000
     24 C14          4.7220     1.2860     3.8490 ca         1 6D3       0.160900
     25 N7           4.9790    -0.0030     4.0620 nb         1 6D3      -0.321000
     26 O5           1.3690    -4.8590    -1.4050 o          1 6D3      -0.728000
     27 C15         -0.5720     0.4420    -2.7170 c3         1 6D3       0.188800
     28 C16         -1.4370     0.0950    -1.5120 c3         1 6D3      -0.107400
     29 C17         -2.9100     0.3330    -1.8080 c3         1 6D3       0.086600
     30 N8          -3.7570    -0.0670    -0.7020 na         1 6D3       0.111800
     31 C18         -4.1420     0.6560     0.3620 cc         1 6D3      -0.209000
     32 C19         -4.8380    -0.2310     1.1470 cd         1 6D3       0.241300
     33 N9          -4.8270    -1.4230     0.5100 nd         1 6D3      -0.371000
     34 N10         -4.1720    -1.3160    -0.5980 nc         1 6D3      -0.226800
     35 C20         -5.5360    -0.0230     2.4430 c3         1 6D3      -0.079700
     36 C21         -6.8750     0.7190     2.3030 c3         1 6D3       0.013500
     37 N11         -6.6390     2.0490     1.7700 n8         1 6D3      -1.000200
     38 C22         -7.6290     0.6620     3.6580 c          1 6D3       0.693000
     39 O6          -7.7930     1.7330     4.2730 o          1 6D3      -0.737500
     40 O7          -7.9970    -0.4730     4.0270 o          1 6D3      -0.737500
     41 H1           2.5900    -3.3580    -3.1300 h1         1 6D3       0.032700
     42 H2           1.8180    -4.1710    -5.1670 hn         1 6D3       0.381500
     43 H3           0.3330    -3.6290    -4.9300 hn         1 6D3       0.381500
     44 H5          -0.2310    -2.2750    -2.8220 hc         1 6D3       0.056200
     45 H6           0.9970    -2.2890    -1.5710 hc         1 6D3       0.056200
     46 H7           2.4900    -0.9050    -2.9790 h1         1 6D3       0.027700
     47 H8           1.2700    -0.8280    -4.2400 h1         1 6D3       0.027700
     48 H10          2.6990     1.1530    -2.5280 h1         1 6D3       0.025200
     49 H11          1.5760     1.8420    -3.6820 h1         1 6D3       0.025200
     50 H12          0.3670     3.0530    -2.0020 h1         1 6D3       0.096700
     51 H13          2.1640     3.0450     1.2170 h2         1 6D3       0.113700
     52 H14          3.9510     2.1890    -1.0580 h1         1 6D3       0.061700
     53 H15          4.9800     4.0200    -0.4300 ho         1 6D3       0.504000
     54 H16          2.9450     3.6950    -2.6380 h1         1 6D3       0.047700
     55 H17          2.6540     5.3320    -0.8260 ho         1 6D3       0.515000
     56 H18          1.8880    -0.2730    -0.4560 h5         1 6D3       0.117800
     57 H19          4.4240    -2.9070     2.7760 hn         1 6D3       0.505500
     58 H20          5.3190    -2.4910     4.1920 hn         1 6D3       0.505500
     59 H21          5.1460     1.9700     4.5770 h5         1 6D3       0.030100
     60 H23         -0.7680     1.4790    -3.0090 h1         1 6D3       0.023700
     61 H24         -0.8870    -0.1590    -3.5800 h1         1 6D3       0.023700
     62 H25         -1.2890    -0.9520    -1.2390 hc         1 6D3       0.077700
     63 H26         -1.1260     0.6950    -0.6540 hc         1 6D3       0.077700
     64 H27         -3.1030     1.3870    -2.0110 h1         1 6D3       0.053200
     65 H28         -3.2310    -0.2330    -2.6830 h1         1 6D3       0.053200
     66 H29         -3.9090     1.7000     0.4780 h4         1 6D3       0.161000
     67 H30         -5.7100    -0.9960     2.9040 hc         1 6D3       0.057200
     68 H31         -4.8920     0.5410     3.1260 hc         1 6D3       0.057200
     69 H32         -7.4760     0.1680     1.5720 h1         1 6D3       0.046700
     70 H33         -7.5290     2.4630     1.5180 hn         1 6D3       0.377000
     71 H34         -6.2960     2.6300     2.5270 hn         1 6D3       0.377000
@<TRIPOS>BOND
     1     1     2 1   
     2     2     3 1   
     3     2    26 1   
     4     3     4 1   
     5     3     5 1   
     6     3    41 1   
     7     4    42 1   
     8     4    43 1   
     9     5     6 1   
    10     5    44 1   
    11     5    45 1   
    12     6     7 1   
    13     6    46 1   
    14     6    47 1   
    15     7     8 1   
    16     7    27 1   
    17     8     9 1   
    18     8    48 1   
    19     8    49 1   
    20     9    10 1   
    21     9    14 1   
    22     9    50 1   
    23    10    11 1   
    24    11    12 1   
    25    11    16 1   
    26    11    51 1   
    27    12    13 1   
    28    12    14 1   
    29    12    52 1   
    30    13    53 1   
    31    14    15 1   
    32    14    54 1   
    33    15    55 1   
    34    16    17 1   
    35    16    22 1   
    36    17    18 2   
    37    17    56 1   
    38    18    19 1   
    39    19    20 ar  
    40    19    22 ar  
    41    20    21 1   
    42    20    25 ar  
    43    21    57 1   
    44    21    58 1   
    45    22    23 ar  
    46    23    24 ar  
    47    24    25 ar  
    48    24    59 1   
    49    27    28 1   
    50    27    60 1   
    51    27    61 1   
    52    28    29 1   
    53    28    62 1   
    54    28    63 1   
    55    29    30 1   
    56    29    64 1   
    57    29    65 1   
    58    30    31 1   
    59    30    34 1   
    60    31    32 2   
    61    31    66 1   
    62    32    33 1   
    63    32    35 1   
    64    33    34 2   
    65    35    36 1   
    66    35    67 1   
    67    35    68 1   
    68    36    37 1   
    69    36    38 1   
    70    36    69 1   
    71    37    70 1   
    72    37    71 1   
    73    38    39 1   
    74    38    40 1   
@<TRIPOS>SUBSTRUCTURE
     1 6D3         1 TEMP              0 ****  ****    0 ROOT
