@<TRIPOS>MOLECULE
6D4
   58    60     1     0     0
SMALL
No Charge or Current Charge


@<TRIPOS>ATOM
      1 C16         53.1500    33.4470   130.7080 c3         1 6D4       0.081800
      2 C15         51.7150    33.7370   131.2500 c3         1 6D4       0.185800
      3 C14         54.3710    34.1780   135.4740 c          1 6D4       0.681000
      4 N10         51.3610    31.1880   129.0490 n8         1 6D4      -0.772000
      5 C11         52.3410    35.1260   133.2570 c3         1 6D4       0.166800
      6 C12         52.0730    34.0070   134.2970 c3         1 6D4      -0.042400
      7 C01         50.2690    39.3480   127.7040 ca         1 6D4       0.146500
      8 C02         50.2360    38.7230   126.4830 ca         1 6D4      -0.098600
      9 C03         50.5430    39.4850   125.3370 ca         1 6D4       0.441900
     10 N01         50.8630    40.7850   125.4320 nb         1 6D4      -0.305000
     11 C04         50.8650    41.3070   126.6830 ca         1 6D4       0.171900
     12 N02         50.5810    40.6530   127.8350 nb         1 6D4      -0.205000
     13 N03         49.9370    38.3890   128.6180 na         1 6D4      -0.288300
     14 C05         49.7120    37.2010   127.9120 cc         1 6D4       0.420700
     15 N04         49.8900    37.3720   126.5880 nd         1 6D4      -0.565100
     16 C06         49.8130    38.5860   130.0650 c5         1 6D4       0.313300
     17 C07         48.9330    37.5680   130.8900 c5         1 6D4       0.134300
     18 C08         49.7010    37.5360   132.2400 c5         1 6D4       0.114300
     19 C09         51.1720    37.5650   131.7060 c5         1 6D4       0.131300
     20 O01         51.1350    38.5720   130.6640 os         1 6D4      -0.460000
     21 O02         47.5850    38.0020   131.1060 oh         1 6D4      -0.685000
     22 O03         49.3600    38.6860   133.0470 oh         1 6D4      -0.709000
     23 C10         51.6830    36.2150   131.1080 c3         1 6D4       0.165800
     24 N06         51.5460    35.0240   131.9950 n3         1 6D4      -0.760600
     25 C13         52.7970    34.1960   135.6590 c3         1 6D4       0.013500
     26 N07         52.2220    35.3610   136.4280 n8         1 6D4      -1.005200
     27 N08         53.2870    32.1220   130.0300 n7         1 6D4      -0.685200
     28 N09         52.5220    31.9900   128.8320 n7         1 6D4      -0.418000
     29 H23         53.8410    33.4780   131.5610 h1         1 6D4       0.057200
     30 H24         53.4490    34.2560   130.0280 h1         1 6D4       0.057200
     31 H22         51.0200    33.7320   130.3990 h1         1 6D4       0.046700
     32 H21         51.4110    32.8960   131.8860 h1         1 6D4       0.046700
     33 H25         51.5660    30.1830   128.9580 hn         1 6D4       0.395500
     34 H1          50.9760    31.3350   129.9910 hn         1 6D4       0.395500
     35 H14         53.4140    35.1430   133.0230 h1         1 6D4       0.049700
     36 H13         52.1160    36.0790   133.7510 h1         1 6D4       0.049700
     37 H15         50.9920    33.9320   134.4710 hc         1 6D4       0.033200
     38 H16         52.3900    33.0430   133.8830 hc         1 6D4       0.033200
     39 H02         49.4340    36.2720   128.3950 h5         1 6D4       0.067800
     40 H03         51.0440    39.4610   123.3550 hn         1 6D4       0.502500
     41 H04         50.5180    37.9450   124.0070 hn         1 6D4       0.502500
     42 H26         49.3900    39.5910   130.1890 h2         1 6D4       0.123700
     43 H05         48.9360    36.5690   130.4360 h1         1 6D4       0.041700
     44 H06         49.4950    36.6060   132.7910 h1         1 6D4       0.072700
     45 H07         51.8770    37.8850   132.4840 h1         1 6D4       0.095700
     46 H08         47.6480    38.5130   131.9530 ho         1 6D4       0.508000
     47 H09         49.8850    38.6290   133.8810 ho         1 6D4       0.515000
     48 H10         51.1400    36.0300   130.1720 h1         1 6D4       0.037200
     49 H11         52.7380    36.3510   130.8320 h1         1 6D4       0.037200
     50 H17         52.5590    33.3030   136.2540 h1         1 6D4       0.041700
     51 H20         52.6210    35.3620   137.3750 hn         1 6D4       0.384500
     52 H19         52.6000    36.2270   136.0250 hn         1 6D4       0.384500
     53 H3          54.2870    31.8900   129.8840 hn         1 6D4       0.442000
     54 H4          52.3880    32.8500   128.2520 hn         1 6D4       0.402000
     55 O04         54.9550    33.1100   135.5970 o          1 6D4      -0.734000
     56 N05         50.5410    38.9590   124.0830 nv         1 6D4      -1.072900
     57 O05         54.9560    35.2470   135.3490 o          1 6D4      -0.734000
     58 H01         51.1210    42.3620   126.7720 h5         1 6D4       0.043100
@<TRIPOS>BOND
     1     1     2 1   
     2     1    27 1   
     3     1    29 1   
     4     1    30 1   
     5     2    24 1   
     6     2    31 1   
     7     2    32 1   
     8     3    25 1   
     9     3    55 1   
    10     3    57 1   
    11     4    28 1   
    12     4    33 1   
    13     4    34 1   
    14     5     6 1   
    15     5    24 1   
    16     5    35 1   
    17     5    36 1   
    18     6    25 1   
    19     6    37 1   
    20     6    38 1   
    21     7     8 ar  
    22     7    12 ar  
    23     7    13 1   
    24     8     9 ar  
    25     8    15 1   
    26     9    10 ar  
    27     9    56 1   
    28    10    11 ar  
    29    11    12 ar  
    30    11    58 1   
    31    13    14 1   
    32    13    16 1   
    33    14    15 2   
    34    14    39 1   
    35    16    17 1   
    36    16    20 1   
    37    16    42 1   
    38    17    18 1   
    39    17    21 1   
    40    17    43 1   
    41    18    19 1   
    42    18    22 1   
    43    18    44 1   
    44    19    20 1   
    45    19    23 1   
    46    19    45 1   
    47    21    46 1   
    48    22    47 1   
    49    23    24 1   
    50    23    48 1   
    51    23    49 1   
    52    25    26 1   
    53    25    50 1   
    54    26    51 1   
    55    26    52 1   
    56    27    28 1   
    57    27    53 1   
    58    28    54 1   
    59    40    56 1   
    60    41    56 1   
@<TRIPOS>SUBSTRUCTURE
     1 6D4         1 TEMP              0 ****  ****    0 ROOT
