@<TRIPOS>MOLECULE
6D4
   58    60     1     0     0
SMALL
abcg2


@<TRIPOS>ATOM
      1 C16         52.8460    32.8840   131.2210 c3         1 6D4       0.081800
      2 C15         51.5810    33.4600   131.8670 c3         1 6D4       0.185800
      3 C14         54.8380    34.2320   135.3210 c          1 6D4       0.681000
      4 N10         50.5640    31.0770   129.5710 n8         1 6D4      -0.772000
      5 C11         52.6960    35.1200   133.3090 c3         1 6D4       0.166800
      6 C12         52.4110    34.4390   134.6420 c3         1 6D4      -0.042400
      7 C01         50.1150    39.6790   127.6710 ca         1 6D4       0.146500
      8 C02         50.5580    39.3520   126.3910 ca         1 6D4      -0.098600
      9 C03         50.4750    40.3640   125.4150 ca         1 6D4       0.441900
     10 N01         49.9870    41.5630   125.7880 nb         1 6D4      -0.305000
     11 C04         49.6020    41.7410   127.0570 ca         1 6D4       0.171900
     12 N02         49.6260    40.8620   128.0570 nb         1 6D4      -0.205000
     13 N03         50.2910    38.5370   128.4210 na         1 6D4      -0.288300
     14 C05         50.8340    37.5960   127.5710 cc         1 6D4       0.420700
     15 N04         51.0080    38.0430   126.3530 nd         1 6D4      -0.565100
     16 C06         49.9920    38.3810   129.8270 c5         1 6D4       0.313300
     17 C07         49.0270    37.2370   130.1370 c5         1 6D4       0.134300
     18 C08         49.4140    36.8730   131.5730 c5         1 6D4       0.114300
     19 C09         50.9310    37.0680   131.5420 c5         1 6D4       0.131300
     20 O01         51.1810    38.0860   130.5370 os         1 6D4      -0.460000
     21 O02         47.7020    37.6680   129.9210 oh         1 6D4      -0.685000
     22 O03         48.7720    37.7860   132.4570 oh         1 6D4      -0.709000
     23 C10         51.7170    35.8060   131.1950 c3         1 6D4       0.165800
     24 N06         51.6720    34.8520   132.2970 n3         1 6D4      -0.760600
     25 C13         53.4420    34.7820   135.7280 c3         1 6D4       0.013500
     26 N07         53.4130    36.2180   136.0400 n8         1 6D4      -1.005200
     27 N08         52.6290    31.5300   130.7030 n7         1 6D4      -0.685200
     28 N09         51.9230    31.4880   129.4530 n7         1 6D4      -0.418000
     29 H23         53.6450    32.8110   131.9620 h1         1 6D4       0.057200
     30 H24         53.2010    33.5610   130.4300 h1         1 6D4       0.057200
     31 H22         50.7520    33.4020   131.1580 h1         1 6D4       0.046700
     32 H21         51.3090    32.8360   132.7200 h1         1 6D4       0.046700
     33 H25         50.5640    30.0710   129.7010 hn         1 6D4       0.395500
     34 H1          50.1350    31.4770   130.4050 hn         1 6D4       0.395500
     35 H14         53.6980    34.8400   132.9530 h1         1 6D4       0.049700
     36 H13         52.7190    36.2000   133.4650 h1         1 6D4       0.049700
     37 H15         51.4190    34.7420   134.9880 hc         1 6D4       0.033200
     38 H16         52.4010    33.3550   134.5170 hc         1 6D4       0.033200
     39 H02         51.0860    36.6070   127.9180 h5         1 6D4       0.067800
     40 H03         50.8370    40.9560   123.4990 hn         1 6D4       0.502500
     41 H04         51.2830    39.3190   123.8530 hn         1 6D4       0.502500
     42 H26         49.5630    39.3310   130.1520 h2         1 6D4       0.123700
     43 H05         49.2650    36.3830   129.4970 h1         1 6D4       0.041700
     44 H06         49.1550    35.8430   131.8230 h1         1 6D4       0.072700
     45 H07         51.2700    37.4660   132.5000 h1         1 6D4       0.095700
     46 H08         47.1200    36.8980   129.9280 ho         1 6D4       0.508000
     47 H09         49.0620    37.5820   133.3550 ho         1 6D4       0.515000
     48 H10         51.2830    35.3470   130.3040 h1         1 6D4       0.037200
     49 H11         52.7410    36.1020   130.9290 h1         1 6D4       0.037200
     50 H17         53.1450    34.2450   136.6320 h1         1 6D4       0.041700
     51 H20         53.8540    36.3600   136.9440 hn         1 6D4       0.384500
     52 H19         54.0320    36.6870   135.3830 hn         1 6D4       0.384500
     53 H3          53.5270    31.0920   130.5390 hn         1 6D4       0.442000
     54 H4          51.9060    32.4230   129.0560 hn         1 6D4       0.402000
     55 O04         54.9590    32.9790   135.3260 o          1 6D4      -0.734000
     56 N05         50.8460    40.1790   124.1380 nv         1 6D4      -1.072900
     57 O05         55.7250    35.0620   134.9980 o          1 6D4      -0.734000
     58 H01         49.2210    42.7280   127.2970 h5         1 6D4       0.043100
@<TRIPOS>BOND
     1     1     2 1   
     2     1    27 1   
     3     1    29 1   
     4     1    30 1   
     5     2    24 1   
     6     2    31 1   
     7     2    32 1   
     8     3    25 1   
     9     3    55 1   
    10     3    57 1   
    11     4    28 1   
    12     4    33 1   
    13     4    34 1   
    14     5     6 1   
    15     5    24 1   
    16     5    35 1   
    17     5    36 1   
    18     6    25 1   
    19     6    37 1   
    20     6    38 1   
    21     7     8 ar  
    22     7    12 ar  
    23     7    13 1   
    24     8     9 ar  
    25     8    15 1   
    26     9    10 ar  
    27     9    56 1   
    28    10    11 ar  
    29    11    12 ar  
    30    11    58 1   
    31    13    14 1   
    32    13    16 1   
    33    14    15 2   
    34    14    39 1   
    35    16    17 1   
    36    16    20 1   
    37    16    42 1   
    38    17    18 1   
    39    17    21 1   
    40    17    43 1   
    41    18    19 1   
    42    18    22 1   
    43    18    44 1   
    44    19    20 1   
    45    19    23 1   
    46    19    45 1   
    47    21    46 1   
    48    22    47 1   
    49    23    24 1   
    50    23    48 1   
    51    23    49 1   
    52    25    26 1   
    53    25    50 1   
    54    26    51 1   
    55    26    52 1   
    56    27    28 1   
    57    27    53 1   
    58    28    54 1   
    59    40    56 1   
    60    41    56 1   
@<TRIPOS>SUBSTRUCTURE
     1 6D4         1 TEMP              0 ****  ****    0 ROOT
