@<TRIPOS>MOLECULE
6D5
   57    59     1     0     0
SMALL
No Charge or Current Charge


@<TRIPOS>ATOM
      1 C1           4.1770     2.1600     1.8900 ca         1 6D5       0.162900
      2 C2           2.8140     0.8840     0.5680 ca         1 6D5       0.121500
      3 C3           2.8380    -0.1150     1.5080 ca         1 6D5      -0.088600
      4 C4           3.5880     0.0960     2.6840 ca         1 6D5       0.442900
      5 C5           1.5950    -0.8640    -0.0810 cc         1 6D5       0.443700
      6 C6          -2.7080     1.4200    -0.6030 c3         1 6D5       0.193800
      7 C7          -3.1290     1.7100     0.8540 c3         1 6D5      -0.105400
      8 C8          -3.6900     3.1350     1.0280 c3         1 6D5       0.157800
      9 N1          -3.3080    -3.4960     1.4140 n8         1 6D5      -1.002200
     10 C9          -2.8030    -3.6220    -0.0030 c3         1 6D5       0.010500
     11 C10         -2.0360    -4.9640    -0.3510 c          1 6D5       0.697000
     12 O1          -1.1490    -5.3420     0.4050 o          1 6D5      -0.734500
     13 C11         -1.9390    -2.3940    -0.4030 c3         1 6D5      -0.055400
     14 C12         -2.7250    -1.0580    -0.4480 c3         1 6D5       0.180800
     15 N2          -1.9330     0.1620    -0.8000 n3         1 6D5      -0.738600
     16 C14         -0.4320     1.2910    -2.6380 c5         1 6D5       0.168300
     17 O2           0.4520     1.7660    -1.5880 os         1 6D5      -0.423000
     18 C15          0.5390     0.9500    -3.8130 c5         1 6D5       0.101300
     19 O3           1.0400     2.1050    -4.4960 oh         1 6D5      -0.714000
     20 C16          1.6960     0.2580    -3.0330 c5         1 6D5       0.076300
     21 O4           2.9220     0.3060    -3.7950 oh         1 6D5      -0.698000
     22 C17          1.7310     1.1050    -1.7020 c5         1 6D5       0.318300
     23 N3           4.2660     1.2380     2.8800 nb         1 6D5      -0.318000
     24 N4           3.4810     2.0430     0.7340 nb         1 6D5      -0.221000
     25 N5           3.6820    -0.8300     3.6750 nv         1 6D5      -1.067900
     26 N6           2.0840    -1.2260     1.1210 nd         1 6D5      -0.527100
     27 N7           2.0310     0.4140    -0.4480 na         1 6D5      -0.290300
     28 N8          -4.0890     3.3610     2.4240 n2         1 6D5      -0.439200
     29 N9          -3.2390     3.8810     3.1660 n1         1 6D5       0.234000
     30 N10         -2.4490     4.2290     3.9060 n1         1 6D5      -0.092000
     31 H1           4.7220     3.0910     2.0400 h5         1 6D5       0.031100
     32 H2           0.9510    -1.4660    -0.7110 h5         1 6D5       0.114800
     33 H4          -3.6050     1.4090    -1.2370 h1         1 6D5       0.015700
     34 H3          -2.1050     2.2790    -0.9220 h1         1 6D5       0.015700
     35 H5          -3.8940     0.9940     1.1740 hc         1 6D5       0.066200
     36 H6          -2.2590     1.5800     1.5070 hc         1 6D5       0.066200
     37 H8          -2.9320     3.8640     0.7090 h1         1 6D5       0.052700
     38 H7          -4.5580     3.2590     0.3670 h1         1 6D5       0.052700
     39 H11         -2.5150    -3.6450     2.0510 hn         1 6D5       0.384500
     40 H12         -3.6920    -3.6080    -0.6490 h1         1 6D5       0.033700
     41 H14         -1.0960    -2.2990     0.2910 hc         1 6D5       0.044700
     42 H13         -1.5190    -2.6010    -1.3930 hc         1 6D5       0.044700
     43 H15         -3.5570    -1.1700    -1.1560 h1         1 6D5       0.031200
     44 H16         -3.1730    -0.9300     0.5440 h1         1 6D5       0.031200
     45 H20         -1.1100     2.1070    -2.9180 h1         1 6D5       0.074700
     46 H21          0.0730     0.2590    -4.5300 h1         1 6D5       0.047700
     47 H22          1.9940     1.8790    -4.6390 ho         1 6D5       0.515000
     48 H23          1.4280    -0.7860    -2.8240 h1         1 6D5       0.070700
     49 H24          3.5680    -0.3090    -3.3720 ho         1 6D5       0.507000
     50 H25          2.5030     1.8790    -1.8020 h2         1 6D5       0.102700
     51 H27          4.4470    -0.7420     4.3390 hn         1 6D5       0.502000
     52 H28          3.3670    -1.7730     3.4610 hn         1 6D5       0.502000
     53 O5          -2.4350    -5.6310    -1.2960 o          1 6D5      -0.734500
     54 C13         -1.3100     0.0790    -2.1610 c3         1 6D5       0.174800
     55 H9          -3.9220    -4.2930     1.6210 hn         1 6D5       0.384500
     56 H19         -0.6800    -0.8140    -2.2160 h1         1 6D5       0.038200
     57 H18         -2.0990    -0.0610    -2.9130 h1         1 6D5       0.038200
@<TRIPOS>BOND
     1     1    23 ar  
     2     1    24 ar  
     3     1    31 1   
     4     2     3 ar  
     5     2    24 ar  
     6     2    27 1   
     7     3     4 ar  
     8     3    26 1   
     9     4    23 ar  
    10     4    25 1   
    11     5    26 2   
    12     5    27 1   
    13     5    32 1   
    14     6     7 1   
    15     6    15 1   
    16     6    33 1   
    17     6    34 1   
    18     7     8 1   
    19     7    35 1   
    20     7    36 1   
    21     8    28 1   
    22     8    37 1   
    23     8    38 1   
    24     9    10 1   
    25     9    39 1   
    26     9    55 1   
    27    10    11 1   
    28    10    13 1   
    29    10    40 1   
    30    11    12 1   
    31    11    53 1   
    32    13    14 1   
    33    13    41 1   
    34    13    42 1   
    35    14    15 1   
    36    14    43 1   
    37    14    44 1   
    38    15    54 1   
    39    16    17 1   
    40    16    18 1   
    41    16    45 1   
    42    16    54 1   
    43    17    22 1   
    44    18    19 1   
    45    18    20 1   
    46    18    46 1   
    47    19    47 1   
    48    20    21 1   
    49    20    22 1   
    50    20    48 1   
    51    21    49 1   
    52    22    27 1   
    53    22    50 1   
    54    25    51 1   
    55    25    52 1   
    56    28    29 1   
    57    29    30 3   
    58    54    56 1   
    59    54    57 1   
@<TRIPOS>SUBSTRUCTURE
     1 6D5         1 TEMP              0 ****  ****    0 ROOT
