@<TRIPOS>MOLECULE
6D5
   57    59     1     0     0
SMALL
abcg2


@<TRIPOS>ATOM
      1 C1           5.0580     1.1410     1.5000 ca         1 6D5       0.162900
      2 C2           3.3780     0.1150     0.5270 ca         1 6D5       0.121500
      3 C3           3.6210    -1.0610     1.2170 ca         1 6D5      -0.088600
      4 C4           4.7070    -1.0480     2.1110 ca         1 6D5       0.442900
      5 C5           1.9470    -1.4540    -0.0130 cc         1 6D5       0.443700
      6 C6          -3.4760     1.5000    -0.9820 c3         1 6D5       0.193800
      7 C7          -3.9020     1.9900     0.3960 c3         1 6D5      -0.105400
      8 C8          -4.9520     3.0860     0.2910 c3         1 6D5       0.157800
      9 N1          -3.3640    -3.1330     1.3370 n8         1 6D5      -1.002200
     10 C9          -2.2920    -3.1360     0.3530 c3         1 6D5       0.010500
     11 C10         -1.0560    -4.0070     0.7030 c          1 6D5       0.697000
     12 O1          -1.0520    -4.5960     1.8000 o          1 6D5      -0.734500
     13 C11         -1.8550    -1.7060     0.0520 c3         1 6D5      -0.055400
     14 C12         -2.9560    -0.8350    -0.5340 c3         1 6D5       0.180800
     15 N2          -2.4540     0.4740    -0.9140 n3         1 6D5      -0.738600
     16 C14         -0.4140     1.3720    -1.9540 c5         1 6D5       0.168300
     17 O2           0.3530     1.0040    -0.8000 os         1 6D5      -0.423000
     18 C15          0.5360     1.2880    -3.1500 c5         1 6D5       0.101300
     19 O3           1.0790     2.5600    -3.4010 oh         1 6D5      -0.714000
     20 C16          1.6100     0.3290    -2.6230 c5         1 6D5       0.076300
     21 O4           2.8600     0.4450    -3.2310 oh         1 6D5      -0.698000
     22 C17          1.6840     0.7830    -1.1710 c5         1 6D5       0.318300
     23 N3           5.4100     0.0840     2.2260 nb         1 6D5      -0.318000
     24 N4           4.0670     1.2480     0.6310 nb         1 6D5      -0.221000
     25 N5           5.0470    -2.1070     2.8480 nv         1 6D5      -1.067900
     26 N6           2.7130    -2.0260     0.8670 nd         1 6D5      -0.527100
     27 N7           2.2980    -0.1520    -0.2690 na         1 6D5      -0.290300
     28 N8          -5.4390     3.5360     1.6020 n2         1 6D5      -0.439200
     29 N9          -4.6690     4.2010     2.2680 n1         1 6D5       0.234000
     30 N10         -4.0350     4.8240     2.9570 n1         1 6D5      -0.092000
     31 H1           5.6660     2.0280     1.6420 h5         1 6D5       0.031100
     32 H2           1.1090    -1.9400    -0.4890 h5         1 6D5       0.114800
     33 H4          -4.3580     1.1630    -1.5520 h1         1 6D5       0.015700
     34 H3          -3.0720     2.3530    -1.5350 h1         1 6D5       0.015700
     35 H5          -4.3070     1.1690     0.9920 hc         1 6D5       0.066200
     36 H6          -3.0170     2.3620     0.9200 hc         1 6D5       0.066200
     37 H8          -4.5680     3.9350    -0.2830 h1         1 6D5       0.052700
     38 H7          -5.8340     2.7180    -0.2300 h1         1 6D5       0.052700
     39 H11         -2.9880    -2.7870     2.2140 hn         1 6D5       0.384500
     40 H12         -2.7080    -3.5500    -0.5760 h1         1 6D5       0.033700
     41 H14         -1.4700    -1.2300     0.9610 hc         1 6D5       0.044700
     42 H13         -1.0180    -1.7530    -0.6430 hc         1 6D5       0.044700
     43 H15         -3.4260    -1.3560    -1.3870 h1         1 6D5       0.031200
     44 H16         -3.7410    -0.7090     0.2110 h1         1 6D5       0.031200
     45 H20         -0.7630     2.4040    -1.8290 h1         1 6D5       0.074700
     46 H21          0.0320     0.8850    -4.0380 h1         1 6D5       0.047700
     47 H22          1.8830     2.4430    -3.9210 ho         1 6D5       0.515000
     48 H23          1.2250    -0.6990    -2.6720 h1         1 6D5       0.070700
     49 H24          2.8700    -0.0910    -4.0300 ho         1 6D5       0.507000
     50 H25          2.2880     1.6960    -1.1050 h2         1 6D5       0.102700
     51 H27          5.8800    -2.0830     3.4100 hn         1 6D5       0.502000
     52 H28          4.5900    -2.9930     2.7190 hn         1 6D5       0.502000
     53 O5          -0.1600    -4.0550    -0.1680 o          1 6D5      -0.734500
     54 C13         -1.6140     0.4490    -2.0940 c3         1 6D5       0.174800
     55 H9          -3.6200    -4.0920     1.5390 hn         1 6D5       0.384500
     56 H19         -1.2630    -0.5700    -2.2790 h1         1 6D5       0.038200
     57 H18         -2.1640     0.7400    -3.0010 h1         1 6D5       0.038200
@<TRIPOS>BOND
     1     1    23 ar  
     2     1    24 ar  
     3     1    31 1   
     4     2     3 ar  
     5     2    24 ar  
     6     2    27 1   
     7     3     4 ar  
     8     3    26 1   
     9     4    23 ar  
    10     4    25 1   
    11     5    26 2   
    12     5    27 1   
    13     5    32 1   
    14     6     7 1   
    15     6    15 1   
    16     6    33 1   
    17     6    34 1   
    18     7     8 1   
    19     7    35 1   
    20     7    36 1   
    21     8    28 1   
    22     8    37 1   
    23     8    38 1   
    24     9    10 1   
    25     9    39 1   
    26     9    55 1   
    27    10    11 1   
    28    10    13 1   
    29    10    40 1   
    30    11    12 1   
    31    11    53 1   
    32    13    14 1   
    33    13    41 1   
    34    13    42 1   
    35    14    15 1   
    36    14    43 1   
    37    14    44 1   
    38    15    54 1   
    39    16    17 1   
    40    16    18 1   
    41    16    45 1   
    42    16    54 1   
    43    17    22 1   
    44    18    19 1   
    45    18    20 1   
    46    18    46 1   
    47    19    47 1   
    48    20    21 1   
    49    20    22 1   
    50    20    48 1   
    51    21    49 1   
    52    22    27 1   
    53    22    50 1   
    54    25    51 1   
    55    25    52 1   
    56    28    29 1   
    57    29    30 3   
    58    54    56 1   
    59    54    57 1   
@<TRIPOS>SUBSTRUCTURE
     1 6D5         1 TEMP              0 ****  ****    0 ROOT
