@<TRIPOS>MOLECULE
6D6
   57    59     1     0     0
SMALL
No Charge or Current Charge


@<TRIPOS>ATOM
      1 C1          52.7550    32.2020   128.7250 c3         1 6D6       0.156800
      2 C2          52.7780    33.5080   129.5380 c3         1 6D6      -0.121400
      3 C3          51.3800    33.8760   130.0880 c3         1 6D6       0.184800
      4 C4          52.1110    35.1660   132.1230 c3         1 6D6       0.164800
      5 C5          52.5140    34.1450   134.4970 c3         1 6D6       0.013500
      6 C6          51.5100    36.3530   130.0080 c3         1 6D6       0.163800
      7 C7          49.6000    37.7430   131.1810 c5         1 6D6       0.114300
      8 C8          49.5950    37.4730   126.8530 cc         1 6D6       0.420700
      9 C9          50.2270    38.9740   125.4450 ca         1 6D6      -0.099600
     10 N1          54.0930    31.8640   128.2130 n8         1 6D6      -0.988200
     11 N2          51.3060    35.1480   130.8620 n3         1 6D6      -0.754600
     12 C10         51.7750    34.0390   133.1350 c3         1 6D6      -0.041400
     13 N3          52.0170    35.3240   135.2990 n8         1 6D6      -1.005200
     14 C11         54.0830    34.0310   134.3030 c          1 6D6       0.682000
     15 O1          54.7350    35.0630   134.2080 o          1 6D6      -0.732500
     16 O2          54.5960    32.9250   134.3930 o          1 6D6      -0.732500
     17 C12         51.0700    37.7110   130.6430 c5         1 6D6       0.132300
     18 O3          51.0800    38.7460   129.6290 os         1 6D6      -0.459000
     19 C13         49.7640    38.8260   129.0220 c5         1 6D6       0.313300
     20 C14         48.8320    37.8440   129.8340 c5         1 6D6       0.133300
     21 O4          47.5110    38.3470   130.0640 oh         1 6D6      -0.685000
     22 O5          49.3190    38.8900   132.0140 oh         1 6D6      -0.710000
     23 N4          49.8880    38.6380   127.5740 na         1 6D6      -0.287300
     24 N5          49.7970    37.6460   125.5320 nd         1 6D6      -0.568100
     25 C15         50.5930    39.7280   124.3110 ca         1 6D6       0.443900
     26 N6          50.5720    39.2160   123.0510 nv         1 6D6      -1.075900
     27 N7          50.9930    41.0040   124.4230 nb         1 6D6      -0.307000
     28 C16         51.0150    41.5120   125.6800 ca         1 6D6       0.171900
     29 N8          50.6790    40.8650   126.8220 nb         1 6D6      -0.205000
     30 C17         50.2880    39.5840   126.6730 ca         1 6D6       0.146500
     31 H1          52.0690    32.3060   127.8720 h1         1 6D6       0.019200
     32 H2          52.4040    31.3760   129.3580 h1         1 6D6       0.019200
     33 H3          53.4820    33.3950   130.3700 hc         1 6D6       0.063700
     34 H4          53.1490    34.3200   128.9020 hc         1 6D6       0.063700
     35 H5          50.6880    33.9370   129.2360 h1         1 6D6       0.038700
     36 H6          51.0180    33.0420   130.7030 h1         1 6D6       0.038700
     37 H7          53.1820    35.1210   131.8840 h1         1 6D6       0.050200
     38 H8          51.9490    36.1180   132.6420 h1         1 6D6       0.050200
     39 H9          52.2210    33.2540   135.0700 h1         1 6D6       0.039700
     40 H10         50.9620    36.2220   129.0670 h1         1 6D6       0.037700
     41 H11         52.5710    36.4410   129.7390 h1         1 6D6       0.037700
     42 H12         49.3490    36.8120   131.7100 h1         1 6D6       0.073700
     43 H14         54.0240    31.0210   127.6300 hn         1 6D6       0.383500
     44 H15         54.3910    32.5910   127.5520 hn         1 6D6       0.383500
     45 H18         50.6920    34.0290   133.3120 hc         1 6D6       0.032200
     46 H19         52.0280    33.0680   132.6940 hc         1 6D6       0.032200
     47 H20         52.4190    35.2750   136.2440 hn         1 6D6       0.384000
     48 H21         52.4480    36.1740   134.9160 hn         1 6D6       0.384000
     49 H24         51.7910    37.9730   131.4270 h1         1 6D6       0.095700
     50 H25         49.3880    39.8500   129.1520 h2         1 6D6       0.123700
     51 H26         48.7780    36.8550   129.3620 h1         1 6D6       0.040700
     52 H27         47.6040    38.8340   130.9210 ho         1 6D6       0.506000
     53 H28         49.8440    38.7900   132.8440 ho         1 6D6       0.515000
     54 H29         51.1140    39.6920   122.3350 hn         1 6D6       0.504000
     55 H30         50.4860    38.2060   122.9650 hn         1 6D6       0.504000
     56 H31         51.3360    42.5470   125.7830 h5         1 6D6       0.043100
     57 H13         49.2550    36.5580   127.3220 h5         1 6D6       0.068800
@<TRIPOS>BOND
     1     1     2 1   
     2     1    10 1   
     3     1    31 1   
     4     1    32 1   
     5     2     3 1   
     6     2    33 1   
     7     2    34 1   
     8     3    11 1   
     9     3    35 1   
    10     3    36 1   
    11     4    11 1   
    12     4    12 1   
    13     4    37 1   
    14     4    38 1   
    15     5    12 1   
    16     5    13 1   
    17     5    14 1   
    18     5    39 1   
    19     6    11 1   
    20     6    17 1   
    21     6    40 1   
    22     6    41 1   
    23     7    17 1   
    24     7    20 1   
    25     7    22 1   
    26     7    42 1   
    27     8    23 1   
    28     8    24 2   
    29     8    57 1   
    30     9    24 1   
    31     9    25 ar  
    32     9    30 ar  
    33    10    43 1   
    34    10    44 1   
    35    12    45 1   
    36    12    46 1   
    37    13    47 1   
    38    13    48 1   
    39    14    15 1   
    40    14    16 1   
    41    17    18 1   
    42    17    49 1   
    43    18    19 1   
    44    19    20 1   
    45    19    23 1   
    46    19    50 1   
    47    20    21 1   
    48    20    51 1   
    49    21    52 1   
    50    22    53 1   
    51    23    30 1   
    52    25    26 1   
    53    25    27 ar  
    54    26    54 1   
    55    26    55 1   
    56    27    28 ar  
    57    28    29 ar  
    58    28    56 1   
    59    29    30 ar  
@<TRIPOS>SUBSTRUCTURE
     1 6D6         1 TEMP              0 ****  ****    0 ROOT
