@<TRIPOS>MOLECULE
6D6
   57    59     1     0     0
SMALL
abcg2


@<TRIPOS>ATOM
      1 C1          52.0750    31.5990   129.4550 c3         1 6D6       0.156800
      2 C2          52.4070    32.9780   130.0060 c3         1 6D6      -0.121400
      3 C3          51.1990    33.6170   130.6980 c3         1 6D6       0.184800
      4 C4          52.4260    35.1540   132.1870 c3         1 6D6       0.164800
      5 C5          53.1800    34.6620   134.5790 c3         1 6D6       0.013500
      6 C6          51.4950    35.9640   130.1020 c3         1 6D6       0.163800
      7 C7          49.2900    37.2060   130.5130 c5         1 6D6       0.114300
      8 C8          50.7640    37.8770   126.5190 cc         1 6D6       0.420700
      9 C9          50.5890    39.6580   125.3590 ca         1 6D6      -0.099600
     10 N1          53.2540    30.9780   128.8320 n8         1 6D6      -0.988200
     11 N2          51.3760    34.9890   131.1800 n3         1 6D6      -0.754600
     12 C10         52.1390    34.4000   133.4800 c3         1 6D6      -0.041400
     13 N3          53.1700    36.0750   134.9820 n8         1 6D6      -1.005200
     14 C11         54.5690    34.1230   134.1340 c          1 6D6       0.682000
     15 O1          55.4660    34.9600   133.8630 o          1 6D6      -0.732500
     16 O2          54.6750    32.8710   134.0600 o          1 6D6      -0.732500
     17 C12         50.8180    37.2790   130.4800 c5         1 6D6       0.132300
     18 O3          51.1430    38.2940   129.4920 os         1 6D6      -0.459000
     19 C13         49.9790    38.6850   128.7870 c5         1 6D6       0.313300
     20 C14         48.9350    37.6070   129.0800 c5         1 6D6       0.133300
     21 O4          47.6440    38.1280   128.8590 oh         1 6D6      -0.685000
     22 O5          48.7230    38.1640   131.4010 oh         1 6D6      -0.710000
     23 N4          50.2860    38.8390   127.3830 na         1 6D6      -0.287300
     24 N5          50.9570    38.3240   125.3040 nd         1 6D6      -0.568100
     25 C15         50.5600    40.6840   124.3940 ca         1 6D6       0.443900
     26 N6          50.9250    40.4940   123.1180 nv         1 6D6      -1.075900
     27 N7          50.1430    41.9050   124.7830 nb         1 6D6      -0.307000
     28 C16         49.7790    42.0920   126.0560 ca         1 6D6       0.171900
     29 N8          49.7590    41.2030   127.0480 nb         1 6D6      -0.205000
     30 C17         50.1750    39.9980   126.6460 ca         1 6D6       0.146500
     31 H1          51.2260    31.6850   128.7610 h1         1 6D6       0.019200
     32 H2          51.7480    30.9490   130.2730 h1         1 6D6       0.019200
     33 H3          53.2410    32.8870   130.7070 hc         1 6D6       0.063700
     34 H4          52.7470    33.6200   129.1860 hc         1 6D6       0.063700
     35 H5          50.3530    33.6280   130.0060 h1         1 6D6       0.038700
     36 H6          50.8990    32.9910   131.5420 h1         1 6D6       0.038700
     37 H7          53.4100    34.8590   131.7920 h1         1 6D6       0.050200
     38 H8          52.4940    36.2200   132.4120 h1         1 6D6       0.050200
     39 H9          52.8810    34.0710   135.4480 h1         1 6D6       0.039700
     40 H10         51.0180    35.5640   129.2050 h1         1 6D6       0.037700
     41 H11         52.5390    36.1790   129.8350 h1         1 6D6       0.037700
     42 H12         48.9480    36.1990   130.7580 h1         1 6D6       0.073700
     43 H14         53.0080    30.0620   128.4700 hn         1 6D6       0.383500
     44 H15         53.5380    31.5280   128.0260 hn         1 6D6       0.383500
     45 H18         51.1540    34.6990   133.8500 hc         1 6D6       0.032200
     46 H19         52.1110    33.3260   133.2930 hc         1 6D6       0.032200
     47 H20         53.6200    36.1540   135.8890 hn         1 6D6       0.384000
     48 H21         53.7890    36.5780   134.3520 hn         1 6D6       0.384000
     49 H24         51.1910    37.6310   131.4430 h1         1 6D6       0.095700
     50 H25         49.6190    39.6580   129.1260 h2         1 6D6       0.123700
     51 H26         49.1210    36.7460   128.4330 h1         1 6D6       0.040700
     52 H27         47.0140    37.3970   128.8390 ho         1 6D6       0.506000
     53 H28         49.0010    37.9380   132.2980 ho         1 6D6       0.515000
     54 H29         50.8910    41.2610   122.4660 hn         1 6D6       0.504000
     55 H30         51.2430    39.5950   122.8010 hn         1 6D6       0.504000
     56 H31         49.4570    43.0970   126.3080 h5         1 6D6       0.043100
     57 H13         50.9560    36.8690   126.8540 h5         1 6D6       0.068800
@<TRIPOS>BOND
     1     1     2 1   
     2     1    10 1   
     3     1    31 1   
     4     1    32 1   
     5     2     3 1   
     6     2    33 1   
     7     2    34 1   
     8     3    11 1   
     9     3    35 1   
    10     3    36 1   
    11     4    11 1   
    12     4    12 1   
    13     4    37 1   
    14     4    38 1   
    15     5    12 1   
    16     5    13 1   
    17     5    14 1   
    18     5    39 1   
    19     6    11 1   
    20     6    17 1   
    21     6    40 1   
    22     6    41 1   
    23     7    17 1   
    24     7    20 1   
    25     7    22 1   
    26     7    42 1   
    27     8    23 1   
    28     8    24 2   
    29     8    57 1   
    30     9    24 1   
    31     9    25 ar  
    32     9    30 ar  
    33    10    43 1   
    34    10    44 1   
    35    12    45 1   
    36    12    46 1   
    37    13    47 1   
    38    13    48 1   
    39    14    15 1   
    40    14    16 1   
    41    17    18 1   
    42    17    49 1   
    43    18    19 1   
    44    19    20 1   
    45    19    23 1   
    46    19    50 1   
    47    20    21 1   
    48    20    51 1   
    49    21    52 1   
    50    22    53 1   
    51    23    30 1   
    52    25    26 1   
    53    25    27 ar  
    54    26    54 1   
    55    26    55 1   
    56    27    28 ar  
    57    28    29 ar  
    58    28    56 1   
    59    29    30 ar  
@<TRIPOS>SUBSTRUCTURE
     1 6D6         1 TEMP              0 ****  ****    0 ROOT
