@<TRIPOS>MOLECULE
6D7
   40    43     1     0     0
SMALL
No Charge or Current Charge


@<TRIPOS>ATOM
      1 C11          3.0450     1.1470    -0.1240 c5         1 6D7       0.311600
      2 C13          3.4350     0.9540    -1.6640 c5         1 6D7      -0.084400
      3 C14          4.1610    -0.4580    -1.7160 c5         1 6D7       0.074600
      4 C21         -0.6050     2.1590     0.7120 ca         1 6D7      -0.092000
      5 C22         -1.3280     1.0390     0.2680 ca         1 6D7      -0.044000
      6 C23         -2.7300     1.0000     0.3920 ca         1 6D7      -0.037000
      7 C10          1.5050     1.1120     0.0180 ca         1 6D7      -0.102300
      8 C16          4.4310    -2.1000     0.2890 cc         1 6D7       0.409400
      9 C18          3.4370    -0.7610     1.7070 cd         1 6D7       0.263900
     10 C19          3.5100    -0.1220     0.5030 cc         1 6D7      -0.271300
     11 C20          0.7950     2.1960     0.5870 ca         1 6D7      -0.097000
     12 C01         -7.0940    -1.4220    -0.2860 c3         1 6D7       0.094300
     13 N02         -5.6420    -1.2430    -0.3500 ns         1 6D7      -0.503900
     14 O04         -5.5830     0.8140     0.5960 o          1 6D7      -0.604100
     15 C05         -3.4670    -0.1220    -0.0530 ca         1 6D7      -0.148600
     16 C06         -2.7610    -1.2080    -0.6270 ca         1 6D7      -0.094000
     17 C07         -1.3620    -1.1670    -0.7510 ca         1 6D7      -0.100000
     18 C08         -0.6410    -0.0470    -0.3050 ca         1 6D7      -0.028000
     19 C09          0.7600    -0.0070    -0.4290 ca         1 6D7      -0.081000
     20 O12          3.6680     2.2830     0.4540 oh         1 6D7      -0.652000
     21 N15          4.0990    -0.9350    -0.3610 na         1 6D7      -0.161500
     22 N17          4.0380    -2.0110     1.5660 nd         1 6D7      -0.679000
     23 H132         2.5610     0.9800    -2.3230 hc         1 6D7       0.072200
     24 H131         4.1050     1.7480    -2.0090 hc         1 6D7       0.072200
     25 H141         3.6490    -1.1540    -2.3930 h1         1 6D7       0.066200
     26 H142         5.2060    -0.3640    -2.0390 h1         1 6D7       0.066200
     27 H211        -1.1250     3.0060     1.1530 ha         1 6D7       0.121000
     28 H231        -3.2470     1.8480     0.8370 ha         1 6D7       0.138000
     29 H161         4.9190    -2.9370    -0.1970 h5         1 6D7       0.058100
     30 H181         2.9970    -0.4200     2.6370 h4         1 6D7       0.041100
     31 H201         1.3190     3.0820     0.9340 ha         1 6D7       0.128000
     32 H013        -7.4260    -1.3790     0.7600 h1         1 6D7       0.040700
     33 H011        -7.5910    -0.6290    -0.8590 h1         1 6D7       0.040700
     34 H012        -7.3630    -2.3980    -0.7110 h1         1 6D7       0.040700
     35 H021        -5.0800    -1.9840    -0.7500 hn         1 6D7       0.317500
     36 H061        -3.2800    -2.0940    -0.9850 ha         1 6D7       0.111000
     37 H071        -0.8390    -2.0120    -1.1950 ha         1 6D7       0.119000
     38 H091         1.2720    -0.8560    -0.8750 ha         1 6D7       0.127000
     39 H121         3.5920     2.1580     1.4230 ho         1 6D7       0.459000
     40 C03         -4.9750    -0.1250     0.0990 c          1 6D7       0.609700
@<TRIPOS>BOND
     1     1     2 1   
     2     1     7 1   
     3     1    10 1   
     4     1    20 1   
     5     2     3 1   
     6     2    23 1   
     7     2    24 1   
     8     3    21 1   
     9     3    25 1   
    10     3    26 1   
    11     4     5 ar  
    12     4    11 ar  
    13     4    27 1   
    14     5     6 ar  
    15     5    18 ar  
    16     6    15 ar  
    17     6    28 1   
    18     7    11 ar  
    19     7    19 ar  
    20     8    21 1   
    21     8    22 2   
    22     8    29 1   
    23     9    10 2   
    24     9    22 1   
    25     9    30 1   
    26    10    21 1   
    27    11    31 1   
    28    12    13 1   
    29    12    32 1   
    30    12    33 1   
    31    12    34 1   
    32    13    35 1   
    33    13    40 1   
    34    14    40 2   
    35    15    16 ar  
    36    15    40 1   
    37    16    17 ar  
    38    16    36 1   
    39    17    18 ar  
    40    17    37 1   
    41    18    19 ar  
    42    19    38 1   
    43    20    39 1   
@<TRIPOS>SUBSTRUCTURE
     1 6D7         1 TEMP              0 ****  ****    0 ROOT
