@<TRIPOS>MOLECULE
6D7
   40    43     1     0     0
SMALL
bcc


@<TRIPOS>ATOM
      1 C11          2.8670     0.8240    -0.1200 c5         1 6D7       0.288400
      2 C13          3.3340     0.8570    -1.5970 c5         1 6D7      -0.084400
      3 C14          4.6900     0.1390    -1.6160 c5         1 6D7       0.045300
      4 C21         -0.6720     2.1580     0.2140 ca         1 6D7      -0.110000
      5 C22         -1.4560     0.9840     0.1350 ca         1 6D7      -0.044000
      6 C23         -2.8640     1.0170     0.2100 ca         1 6D7      -0.055000
      7 C10          1.3560     0.8540     0.0010 ca         1 6D7      -0.102300
      8 C16          5.1670    -1.8440     0.0110 cc         1 6D7       0.409400
      9 C18          3.5570    -1.3730     1.3480 cd         1 6D7       0.329200
     10 C19          3.5170    -0.4480     0.3410 cc         1 6D7      -0.285900
     11 C20          0.6920     2.0950     0.1480 ca         1 6D7      -0.115000
     12 C01         -7.2500    -1.0160    -0.3380 c3         1 6D7       0.094300
     13 N02         -5.8060    -1.0110    -0.3480 ns         1 6D7      -0.570900
     14 O04         -5.6280     0.9510     0.7320 o          1 6D7      -0.604100
     15 C05         -3.6060    -0.1340     0.1170 ca         1 6D7      -0.148600
     16 C06         -2.9430    -1.3770    -0.0300 ca         1 6D7      -0.112000
     17 C07         -1.5800    -1.4370    -0.0920 ca         1 6D7      -0.118000
     18 C08         -0.7980    -0.2610    -0.0180 ca         1 6D7      -0.028000
     19 C09          0.6120    -0.2950    -0.0830 ca         1 6D7      -0.099000
     20 O12          3.4660     1.9330     0.5180 oh         1 6D7      -0.589800
     21 N15          4.5430    -0.7660    -0.4910 na         1 6D7      -0.182900
     22 N17          4.5900    -2.2400     1.1240 nd         1 6D7      -0.679000
     23 H132         2.6220     0.3050    -2.2100 hc         1 6D7       0.072200
     24 H131         3.3890     1.8760    -1.9800 hc         1 6D7       0.072200
     25 H141         4.8640    -0.4060    -2.5410 h1         1 6D7       0.066200
     26 H142         5.5260     0.8180    -1.4490 h1         1 6D7       0.066200
     27 H211        -1.1660     3.1140     0.3330 ha         1 6D7       0.139000
     28 H231        -3.3590     1.9710     0.3370 ha         1 6D7       0.156000
     29 H161         6.0190    -2.3060    -0.4630 h5         1 6D7       0.058100
     30 H181         2.9010    -1.4700     2.2000 h4         1 6D7       0.041100
     31 H201         1.2700     3.0060     0.2140 ha         1 6D7       0.146000
     32 H013        -7.6400    -0.9800     0.6790 h1         1 6D7       0.040700
     33 H011        -7.6630    -0.1730    -0.8940 h1         1 6D7       0.040700
     34 H012        -7.5920    -1.9360    -0.8030 h1         1 6D7       0.040700
     35 H021        -5.3400    -1.7410    -0.8600 hn         1 6D7       0.317500
     36 H061        -3.5060    -2.3010    -0.0670 ha         1 6D7       0.129000
     37 H071        -1.0840    -2.3950    -0.1950 ha         1 6D7       0.137000
     38 H091         1.1010    -1.2560    -0.2020 ha         1 6D7       0.145000
     39 H121         3.3340     1.8520     1.4700 ho         1 6D7       0.420000
     40 C03         -5.0960    -0.0160     0.1990 c          1 6D7       0.676700
@<TRIPOS>BOND
     1     1     2 1   
     2     1     7 1   
     3     1    10 1   
     4     1    20 1   
     5     2     3 1   
     6     2    23 1   
     7     2    24 1   
     8     3    21 1   
     9     3    25 1   
    10     3    26 1   
    11     4     5 ar  
    12     4    11 ar  
    13     4    27 1   
    14     5     6 ar  
    15     5    18 ar  
    16     6    15 ar  
    17     6    28 1   
    18     7    11 ar  
    19     7    19 ar  
    20     8    21 1   
    21     8    22 2   
    22     8    29 1   
    23     9    10 2   
    24     9    22 1   
    25     9    30 1   
    26    10    21 1   
    27    11    31 1   
    28    12    13 1   
    29    12    32 1   
    30    12    33 1   
    31    12    34 1   
    32    13    35 1   
    33    13    40 1   
    34    14    40 2   
    35    15    16 ar  
    36    15    40 1   
    37    16    17 ar  
    38    16    36 1   
    39    17    18 ar  
    40    17    37 1   
    41    18    19 ar  
    42    19    38 1   
    43    20    39 1   
@<TRIPOS>SUBSTRUCTURE
     1 6D7         1 TEMP              0 ****  ****    0 ROOT
