@<TRIPOS>MOLECULE
6D8
   45    47     1     0     0
SMALL
No Charge or Current Charge


@<TRIPOS>ATOM
      1 C10         -2.1460    -1.5240     0.0770 ca         1 6D8      -0.137000
      2 C13         -4.9830    -2.4050    -0.0810 c3         1 6D8       0.391300
      3 C21         -1.6270     1.2410     0.0290 ca         1 6D8      -0.137000
      4 C22         -0.5620     0.3280     0.1230 ca         1 6D8      -0.031000
      5 C24          4.1470    -0.2890    -0.7420 cc         1 6D8       0.179300
      6 C02          3.9140     0.0610     1.8140 c3         1 6D8      -0.035700
      7 C03          3.0290     0.6030     2.9700 c3         1 6D8      -0.084600
      8 C04          3.3280     0.3690     0.3830 c3         1 6D8       0.225000
      9 O05          3.3860     1.7990     0.2060 oh         1 6D8      -0.648000
     10 C06          1.8540    -0.1070     0.2890 ca         1 6D8      -0.101300
     11 C07          1.5660    -1.4910     0.3240 ca         1 6D8      -0.085000
     12 C08          0.2440    -1.9600     0.2510 ca         1 6D8      -0.100000
     13 C09         -0.8230    -1.0540     0.1480 ca         1 6D8      -0.024000
     14 C11         -3.2250    -0.6130    -0.0200 ca         1 6D8       0.129100
     15 O12         -4.5500    -1.0280    -0.0940 os         1 6D8      -0.372100
     16 F14         -4.4590    -3.0970    -1.1200 f          1 6D8      -0.130500
     17 F15         -4.6000    -3.0330     1.0560 f          1 6D8      -0.130500
     18 C16         -2.9630     0.7800    -0.0440 ca         1 6D8       0.127100
     19 O17         -4.0490     1.6440    -0.1390 os         1 6D8      -0.372100
     20 C18         -3.9540     3.0840    -0.1740 c3         1 6D8       0.391300
     21 F19         -3.3620     3.5670     0.9450 f          1 6D8      -0.132000
     22 F20         -3.2220     3.5060    -1.2320 f          1 6D8      -0.132000
     23 C23          0.7650     0.7960     0.1960 ca         1 6D8      -0.094000
     24 C25          4.3880     0.2010    -1.9930 cd         1 6D8      -0.203000
     25 N26          5.1510    -0.7800    -2.5950 na         1 6D8      -0.006200
     26 N27          5.3520    -1.8220    -1.7280 nd         1 6D8      -0.195800
     27 N28          4.7410    -1.5200    -0.6120 nc         1 6D8      -0.361000
     28 H101        -2.3140    -2.5950     0.0990 ha         1 6D8       0.139000
     29 H131        -6.0740    -2.4560    -0.1510 h3         1 6D8       0.109700
     30 H211        -1.3980     2.3010     0.0130 ha         1 6D8       0.137000
     31 H013         5.4480     1.6340     1.9590 hc         1 6D8       0.037367
     32 H011         5.7680     0.2190     2.9760 hc         1 6D8       0.037367
     33 H012         6.0420     0.1280     1.2310 hc         1 6D8       0.037367
     34 H021         3.9280    -1.0300     1.9330 hc         1 6D8       0.064700
     35 H033         2.0220     0.1710     2.9390 hc         1 6D8       0.037367
     36 H031         3.4650     0.3450     3.9430 hc         1 6D8       0.037367
     37 H032         2.9370     1.6940     2.9200 hc         1 6D8       0.037367
     38 H051         2.9770     1.9890    -0.6630 ho         1 6D8       0.443000
     39 H071         2.3690    -2.2190     0.4130 ha         1 6D8       0.140000
     40 H081         0.0540    -3.0300     0.2770 ha         1 6D8       0.120000
     41 H181        -4.9530     3.5250    -0.2510 h3         1 6D8       0.110700
     42 H231         0.9300     1.8700     0.1910 ha         1 6D8       0.118000
     43 H251         4.0940     1.1220    -2.4810 h4         1 6D8       0.170000
     44 H261         5.5350    -0.7860    -3.5370 hn         1 6D8       0.379000
     45 C01          5.3800     0.5410     2.0020 c3         1 6D8      -0.084600
@<TRIPOS>BOND
     1     1    13 ar  
     2     1    14 ar  
     3     1    28 1   
     4     2    15 1   
     5     2    16 1   
     6     2    17 1   
     7     2    29 1   
     8     3     4 ar  
     9     3    18 ar  
    10     3    30 1   
    11     4    13 ar  
    12     4    23 ar  
    13     5     8 1   
    14     5    24 2   
    15     5    27 1   
    16     6     7 1   
    17     6     8 1   
    18     6    34 1   
    19     6    45 1   
    20     7    35 1   
    21     7    36 1   
    22     7    37 1   
    23     8     9 1   
    24     8    10 1   
    25     9    38 1   
    26    10    11 ar  
    27    10    23 ar  
    28    11    12 ar  
    29    11    39 1   
    30    12    13 ar  
    31    12    40 1   
    32    14    15 1   
    33    14    18 ar  
    34    18    19 1   
    35    19    20 1   
    36    20    21 1   
    37    20    22 1   
    38    20    41 1   
    39    23    42 1   
    40    24    25 1   
    41    24    43 1   
    42    25    26 1   
    43    25    44 1   
    44    26    27 2   
    45    31    45 1   
    46    32    45 1   
    47    33    45 1   
@<TRIPOS>SUBSTRUCTURE
     1 6D8         1 TEMP              0 ****  ****    0 ROOT
