@<TRIPOS>MOLECULE
6D8
   45    47     1     0     0
SMALL
bcc


@<TRIPOS>ATOM
      1 C10         -2.1540    -1.5350     0.1480 ca         1 6D8      -0.155000
      2 C13         -4.9950    -2.2060    -0.0650 c3         1 6D8       0.610700
      3 C21         -1.6320     1.2160     0.0190 ca         1 6D8      -0.155000
      4 C22         -0.5530     0.3080     0.1290 ca         1 6D8      -0.031000
      5 C24          4.1010    -0.2730    -0.7280 cc         1 6D8       0.244600
      6 C02          3.8710     0.0440     1.7520 c3         1 6D8      -0.035700
      7 C03          3.0480     0.6510     2.8850 c3         1 6D8      -0.084600
      8 C04          3.2800     0.3800     0.3590 c3         1 6D8       0.201800
      9 O05          3.3630     1.7730     0.2050 oh         1 6D8      -0.585800
     10 C06          1.8350    -0.1100     0.2810 ca         1 6D8      -0.101300
     11 C07          1.5550    -1.4970     0.3460 ca         1 6D8      -0.103000
     12 C08          0.2720    -1.9640     0.3080 ca         1 6D8      -0.118000
     13 C09         -0.8190    -1.0750     0.1950 ca         1 6D8      -0.024000
     14 C11         -3.1830    -0.6440     0.0380 ca         1 6D8       0.129100
     15 O12         -4.5170    -0.9400    -0.0200 os         1 6D8      -0.348900
     16 F14         -4.4900    -2.8870    -1.1180 f          1 6D8      -0.251800
     17 F15         -4.6520    -2.9050     1.0410 f          1 6D8      -0.251800
     18 C16         -2.9160     0.7540    -0.0260 ca         1 6D8       0.127100
     19 O17         -4.0520     1.5090    -0.1330 os         1 6D8      -0.348900
     20 C18         -4.0440     2.8630    -0.1800 c3         1 6D8       0.610700
     21 F19         -3.4500     3.3940     0.9130 f          1 6D8      -0.253300
     22 F20         -3.3480     3.3160    -1.2480 f          1 6D8      -0.253300
     23 C23          0.7850     0.7660     0.1810 ca         1 6D8      -0.112000
     24 C25          4.6490     0.3110    -1.8430 cd         1 6D8      -0.235600
     25 N26          5.2710    -0.7050    -2.4590 na         1 6D8      -0.006600
     26 N27          5.1400    -1.8330    -1.7960 nd         1 6D8      -0.195800
     27 N28          4.4360    -1.5820    -0.7460 nc         1 6D8      -0.361000
     28 H101        -2.3150    -2.6020     0.2070 ha         1 6D8       0.157000
     29 H131        -6.0790    -2.1560    -0.1440 h3         1 6D8       0.109700
     30 H211        -1.3980     2.2690    -0.0320 ha         1 6D8       0.155000
     31 H013         5.4400     1.5520     1.8210 hc         1 6D8       0.037367
     32 H011         5.7260     0.1510     2.8450 hc         1 6D8       0.037367
     33 H012         5.9640     0.0260     1.1080 hc         1 6D8       0.037367
     34 H021         3.8280    -1.0450     1.8470 hc         1 6D8       0.064700
     35 H033         1.9990     0.3580     2.8390 hc         1 6D8       0.037367
     36 H031         3.4400     0.3160     3.8460 hc         1 6D8       0.037367
     37 H032         3.0930     1.7400     2.8720 hc         1 6D8       0.037367
     38 H051         2.9470     2.0350    -0.6240 ho         1 6D8       0.404000
     39 H071         2.3680    -2.2070     0.4230 ha         1 6D8       0.158000
     40 H081         0.0830    -3.0300     0.3620 ha         1 6D8       0.138000
     41 H181        -5.0740     3.2060    -0.2410 h3         1 6D8       0.110700
     42 H231         0.9450     1.8360     0.1560 ha         1 6D8       0.136000
     43 H251         4.6580     1.3160    -2.2270 h4         1 6D8       0.188000
     44 H261         5.7930    -0.6840    -3.3240 hn         1 6D8       0.328700
     45 C01          5.3320     0.4690     1.8780 c3         1 6D8      -0.084600
@<TRIPOS>BOND
     1     1    13 ar  
     2     1    14 ar  
     3     1    28 1   
     4     2    15 1   
     5     2    16 1   
     6     2    17 1   
     7     2    29 1   
     8     3     4 ar  
     9     3    18 ar  
    10     3    30 1   
    11     4    13 ar  
    12     4    23 ar  
    13     5     8 1   
    14     5    24 2   
    15     5    27 1   
    16     6     7 1   
    17     6     8 1   
    18     6    34 1   
    19     6    45 1   
    20     7    35 1   
    21     7    36 1   
    22     7    37 1   
    23     8     9 1   
    24     8    10 1   
    25     9    38 1   
    26    10    11 ar  
    27    10    23 ar  
    28    11    12 ar  
    29    11    39 1   
    30    12    13 ar  
    31    12    40 1   
    32    14    15 1   
    33    14    18 ar  
    34    18    19 1   
    35    19    20 1   
    36    20    21 1   
    37    20    22 1   
    38    20    41 1   
    39    23    42 1   
    40    24    25 1   
    41    24    43 1   
    42    25    26 1   
    43    25    44 1   
    44    26    27 2   
    45    31    45 1   
    46    32    45 1   
    47    33    45 1   
@<TRIPOS>SUBSTRUCTURE
     1 6D8         1 TEMP              0 ****  ****    0 ROOT
