@<TRIPOS>MOLECULE
6DA
   62    68     1     0     0
SMALL
abcg2


@<TRIPOS>ATOM
      1 C1           5.9950     0.8420     0.6570 c3         1 6DA       0.153800
      2 C2           8.3000     0.9880     0.0050 c6         1 6DA       0.125800
      3 C3           9.3600     0.3990    -0.9040 c6         1 6DA       0.153600
      4 C11         -1.3610     2.1270     0.5930 ca         1 6DA      -0.038000
      5 C12         -0.0240     1.7840     0.5290 ca         1 6DA      -0.204000
      6 C13         -4.1040     3.4990    -0.6920 cc         1 6DA       0.411700
      7 C14         -5.6740     2.1240    -0.3660 ca         1 6DA       0.008400
      8 C15         -6.9120     1.4680    -0.1860 ca         1 6DA       0.419900
      9 C16         -5.8270    -0.5390     0.0800 ca         1 6DA       0.208000
     10 C17         -5.9190    -1.9250     0.3240 ca         1 6DA       0.384900
     11 C18         -3.6480    -2.2230     0.2240 cp         1 6DA       0.399500
     12 C19         -3.4310    -0.8810     0.0030 ca         1 6DA      -0.135000
     13 C20         -4.5260    -0.0080    -0.0840 ca         1 6DA      -0.020000
     14 C21         -4.5000     1.3850    -0.3160 ca         1 6DA      -0.068200
     15 C22         -2.5290    -3.1830     0.3120 cp         1 6DA      -0.145500
     16 C23         -2.6870    -4.3780     1.0160 ca         1 6DA      -0.082500
     17 C24         -1.6370    -5.2780     1.1260 ca         1 6DA      -0.119500
     18 C25         -0.4140    -5.0040     0.5270 ca         1 6DA      -0.101000
     19 C26         -0.2500    -3.8240    -0.1870 ca         1 6DA      -0.119500
     20 C27         -1.2980    -2.9230    -0.2940 ca         1 6DA      -0.082500
     21 N6          -4.8920    -2.7270     0.3900 nb         1 6DA      -0.667000
     22 N5          -6.9790     0.1860     0.0280 nb         1 6DA      -0.665000
     23 N4          -5.4010     3.4430    -0.6020 nd         1 6DA      -0.547100
     24 N3          -3.4990     2.2880    -0.5280 na         1 6DA      -0.059400
     25 C10         -2.1050     2.0170    -0.5720 ca         1 6DA      -0.045200
     26 C9          -1.5320     1.5830    -1.7660 ca         1 6DA      -0.084000
     27 C8          -0.1930     1.2390    -1.8150 ca         1 6DA      -0.082000
     28 C7           0.5820     1.3330    -0.6590 ca         1 6DA       0.165400
     29 N2           1.9080     1.0130    -0.5660 nc         1 6DA      -0.640100
     30 S            1.1580     1.8060     1.8020 ss         1 6DA      -0.019200
     31 C6           2.3470     1.2080     0.6390 cd         1 6DA       0.666100
     32 N1           3.6050     1.0130     1.0360 nu         1 6DA      -0.878400
     33 C            4.6120     0.4360     0.1670 c3         1 6DA       0.220800
     34 N            7.0460     0.2720    -0.1590 n3         1 6DA      -0.714600
     35 C5           7.2570    -1.1430     0.0990 c6         1 6DA       0.125800
     36 C4           8.3410    -1.6840    -0.8130 c6         1 6DA       0.153600
     37 O            9.5510    -0.9770    -0.6590 os         1 6DA      -0.447000
     38 H1           6.0670     1.9300     0.6020 h1         1 6DA       0.036700
     39 H2           6.1110     0.5710     1.7220 h1         1 6DA       0.036700
     40 H3           8.6530     0.9620     1.0500 h1         1 6DA       0.041950
     41 H4           8.1550     2.0380    -0.2600 h1         1 6DA       0.041950
     42 H5           9.0710     0.5650    -1.9520 h1         1 6DA       0.053450
     43 H6          10.3160     0.8980    -0.7360 h1         1 6DA       0.053450
     44 H7          -1.8220     2.4560     1.5150 ha         1 6DA       0.140000
     45 H8          -3.5210     4.3890    -0.8770 h5         1 6DA       0.071800
     46 H9          -7.8400     2.0280    -0.2250 h4         1 6DA       0.038100
     47 H10         -6.9050    -2.3580     0.4650 h4         1 6DA       0.037100
     48 H11         -2.4240    -0.5020    -0.0830 ha         1 6DA       0.130000
     49 H12         -3.6350    -4.5980     1.4860 ha         1 6DA       0.122500
     50 H13         -1.7750    -6.1950     1.6830 ha         1 6DA       0.113500
     51 H14          0.4050    -5.7060     0.6140 ha         1 6DA       0.111000
     52 H15          0.6940    -3.6070    -0.6700 ha         1 6DA       0.113500
     53 H16         -1.1540    -2.0220    -0.8790 ha         1 6DA       0.122500
     54 H17         -2.1470     1.5020    -2.6530 ha         1 6DA       0.135000
     55 H18          0.2530     0.8960    -2.7380 ha         1 6DA       0.141000
     56 H19          3.8070     1.0440     2.0230 hn         1 6DA       0.501000
     57 H20          4.4590     0.8100    -0.8440 h1         1 6DA       0.067700
     58 H21          4.5000    -0.6520     0.1330 h1         1 6DA       0.067700
     59 H23          7.5350    -1.3220     1.1520 h1         1 6DA       0.041950
     60 H24          6.3410    -1.7040    -0.0910 h1         1 6DA       0.041950
     61 H25          8.5410    -2.7300    -0.5730 h1         1 6DA       0.053450
     62 H26          7.9970    -1.6360    -1.8550 h1         1 6DA       0.053450
@<TRIPOS>BOND
     1     1    33 1   
     2     1    34 1   
     3     1    38 1   
     4     1    39 1   
     5     2     3 1   
     6     2    34 1   
     7     2    40 1   
     8     2    41 1   
     9     3    37 1   
    10     3    42 1   
    11     3    43 1   
    12     4     5 ar  
    13     4    25 ar  
    14     4    44 1   
    15     5    28 ar  
    16     5    30 1   
    17     6    23 2   
    18     6    24 1   
    19     6    45 1   
    20     7     8 ar  
    21     7    14 ar  
    22     7    23 1   
    23     8    22 ar  
    24     8    46 1   
    25     9    10 ar  
    26     9    13 ar  
    27     9    22 ar  
    28    10    21 ar  
    29    10    47 1   
    30    11    12 ar  
    31    11    15 1   
    32    11    21 ar  
    33    12    13 ar  
    34    12    48 1   
    35    13    14 ar  
    36    14    24 1   
    37    15    16 ar  
    38    15    20 ar  
    39    16    17 ar  
    40    16    49 1   
    41    17    18 ar  
    42    17    50 1   
    43    18    19 ar  
    44    18    51 1   
    45    19    20 ar  
    46    19    52 1   
    47    20    53 1   
    48    24    25 1   
    49    25    26 ar  
    50    26    27 ar  
    51    26    54 1   
    52    27    28 ar  
    53    27    55 1   
    54    28    29 1   
    55    29    31 2   
    56    30    31 1   
    57    31    32 1   
    58    32    33 1   
    59    32    56 1   
    60    33    57 1   
    61    33    58 1   
    62    34    35 1   
    63    35    36 1   
    64    35    59 1   
    65    35    60 1   
    66    36    37 1   
    67    36    61 1   
    68    36    62 1   
@<TRIPOS>SUBSTRUCTURE
     1 6DA         1 TEMP              0 ****  ****    0 ROOT
