@<TRIPOS>MOLECULE
6DA
   62    68     1     0     0
SMALL
No Charge or Current Charge


@<TRIPOS>ATOM
      1 C1           6.0180     0.6610     0.6870 c3         1 6DA       0.153800
      2 C2           8.4700     0.3510     0.4800 c6         1 6DA       0.125800
      3 C3           9.6430    -0.0270    -0.4730 c6         1 6DA       0.153600
      4 C11         -1.4500     2.2020     0.7350 ca         1 6DA      -0.038000
      5 C12         -0.0830     1.9150     0.6120 ca         1 6DA      -0.204000
      6 C13         -4.2060     3.4960    -0.5690 cc         1 6DA       0.411700
      7 C14         -5.7690     1.9910    -0.6960 ca         1 6DA       0.008400
      8 C15         -6.9760     1.2780    -0.8660 ca         1 6DA       0.419900
      9 C16         -5.8890    -0.7580    -0.4010 ca         1 6DA       0.208000
     10 C17         -5.8820    -2.1670    -0.2290 ca         1 6DA       0.384900
     11 C18         -3.6060    -2.2610     0.2820 cp         1 6DA       0.399500
     12 C19         -3.5130    -0.8550     0.1460 ca         1 6DA      -0.135000
     13 C20         -4.6460    -0.0960    -0.2100 ca         1 6DA      -0.020000
     14 C21         -4.6290     1.3030    -0.3820 ca         1 6DA      -0.068200
     15 C22         -2.4170    -3.1120     0.6480 cp         1 6DA      -0.145500
     16 C23         -2.5800    -4.3880     1.2550 ca         1 6DA      -0.082500
     17 C24         -1.4720    -5.1800     1.6010 ca         1 6DA      -0.119500
     18 C25         -0.1710    -4.7220     1.3470 ca         1 6DA      -0.101000
     19 C26          0.0210    -3.4700     0.7420 ca         1 6DA      -0.119500
     20 C27         -1.0860    -2.6760     0.3950 ca         1 6DA      -0.082500
     21 N6          -4.7840    -2.8980     0.1000 nb         1 6DA      -0.667000
     22 N5          -7.0340    -0.0770    -0.7250 nb         1 6DA      -0.665000
     23 N4          -5.5320     3.3720    -0.8100 nd         1 6DA      -0.547100
     24 N3          -3.6480     2.2500    -0.2880 na         1 6DA      -0.059400
     25 C10         -2.2790     2.0260    -0.3900 ca         1 6DA      -0.045200
     26 C9          -1.7220     1.5790    -1.6090 ca         1 6DA      -0.084000
     27 C8          -0.3430     1.3020    -1.7010 ca         1 6DA      -0.082000
     28 C7           0.4780     1.4700    -0.5740 ca         1 6DA       0.165400
     29 N2           1.8440     1.2050    -0.5750 nc         1 6DA      -0.640100
     30 S            1.1110     2.0450     1.8890 ss         1 6DA      -0.019200
     31 C6           2.2690     1.4710     0.6600 cd         1 6DA       0.666100
     32 N1           3.5910     1.2880     0.9380 nu         1 6DA      -0.878400
     33 C            4.6320     0.8150    -0.0020 c3         1 6DA       0.220800
     34 N            7.1440     0.2780    -0.2100 n3         1 6DA      -0.714600
     35 C5           6.9710    -1.0590    -0.8690 c6         1 6DA       0.125800
     36 C4           8.1770    -1.4110    -1.7900 c6         1 6DA       0.153600
     37 O            9.4180    -1.3360    -1.0490 os         1 6DA      -0.447000
     38 H1           6.2550     1.6230     1.1610 h1         1 6DA       0.036700
     39 H2           5.9220    -0.0780     1.4940 h1         1 6DA       0.036700
     40 H3           8.4880    -0.3280     1.3450 h1         1 6DA       0.041950
     41 H4           8.6440     1.3670     0.8650 h1         1 6DA       0.041950
     42 H5           9.7270     0.7160    -1.2790 h1         1 6DA       0.053450
     43 H6          10.5900    -0.0370     0.0850 h1         1 6DA       0.053450
     44 H7          -1.8640     2.5370     1.6850 ha         1 6DA       0.140000
     45 H8          -3.6190     4.4050    -0.6180 h5         1 6DA       0.071800
     46 H9          -7.9030     1.7910    -1.1210 h4         1 6DA       0.038100
     47 H10         -6.8030    -2.7340    -0.3600 h4         1 6DA       0.037100
     48 H11         -2.5660    -0.3720     0.3410 ha         1 6DA       0.130000
     49 H12         -3.5770    -4.7670     1.4710 ha         1 6DA       0.122500
     50 H13         -1.6240    -6.1510     2.0690 ha         1 6DA       0.113500
     51 H14          0.6870    -5.3360     1.6140 ha         1 6DA       0.111000
     52 H15          1.0280    -3.1150     0.5370 ha         1 6DA       0.113500
     53 H16         -0.8980    -1.7210    -0.0890 ha         1 6DA       0.122500
     54 H17         -2.3590     1.4340    -2.4790 ha         1 6DA       0.135000
     55 H18          0.0840     0.9520    -2.6360 ha         1 6DA       0.141000
     56 H19          3.8580     1.5170     1.8930 hn         1 6DA       0.501000
     57 H20          4.7330     1.5240    -0.8350 h1         1 6DA       0.067700
     58 H21          4.3320    -0.1530    -0.4250 h1         1 6DA       0.067700
     59 H23          6.8670    -1.8480    -0.1090 h1         1 6DA       0.041950
     60 H24          6.0580    -1.0770    -1.4800 h1         1 6DA       0.041950
     61 H25          8.0570    -2.4280    -2.1910 h1         1 6DA       0.053450
     62 H26          8.2170    -0.7120    -2.6380 h1         1 6DA       0.053450
@<TRIPOS>BOND
     1     1    33 1   
     2     1    34 1   
     3     1    38 1   
     4     1    39 1   
     5     2     3 1   
     6     2    34 1   
     7     2    40 1   
     8     2    41 1   
     9     3    37 1   
    10     3    42 1   
    11     3    43 1   
    12     4     5 ar  
    13     4    25 ar  
    14     4    44 1   
    15     5    28 ar  
    16     5    30 1   
    17     6    23 2   
    18     6    24 1   
    19     6    45 1   
    20     7     8 ar  
    21     7    14 ar  
    22     7    23 1   
    23     8    22 ar  
    24     8    46 1   
    25     9    10 ar  
    26     9    13 ar  
    27     9    22 ar  
    28    10    21 ar  
    29    10    47 1   
    30    11    12 ar  
    31    11    15 1   
    32    11    21 ar  
    33    12    13 ar  
    34    12    48 1   
    35    13    14 ar  
    36    14    24 1   
    37    15    16 ar  
    38    15    20 ar  
    39    16    17 ar  
    40    16    49 1   
    41    17    18 ar  
    42    17    50 1   
    43    18    19 ar  
    44    18    51 1   
    45    19    20 ar  
    46    19    52 1   
    47    20    53 1   
    48    24    25 1   
    49    25    26 ar  
    50    26    27 ar  
    51    26    54 1   
    52    27    28 ar  
    53    27    55 1   
    54    28    29 1   
    55    29    31 2   
    56    30    31 1   
    57    31    32 1   
    58    32    33 1   
    59    32    56 1   
    60    33    57 1   
    61    33    58 1   
    62    34    35 1   
    63    35    36 1   
    64    35    59 1   
    65    35    60 1   
    66    36    37 1   
    67    36    61 1   
    68    36    62 1   
@<TRIPOS>SUBSTRUCTURE
     1 6DA         1 TEMP              0 ****  ****    0 ROOT
