@<TRIPOS>MOLECULE
6DC
   47    49     1     0     0
SMALL
No Charge or Current Charge


@<TRIPOS>ATOM
      1 CAA          6.9180     0.1200     3.1100 c3         1 6DC      -0.084100
      2 CAO          6.7460     0.4230     1.6100 c3         1 6DC      -0.044400
      3 CAP          5.3430     0.0300     1.0890 c3         1 6DC      -0.340400
      4 SBB          5.1130     0.3760    -0.6610 s6         1 6DC       1.186100
      5 OAE          5.1170     1.8220    -0.8900 o          1 6DC      -0.521000
      6 OAF          5.9870    -0.5020    -1.4390 o          1 6DC      -0.521000
      7 NAS          3.5790    -0.1560    -1.0030 nu         1 6DC      -0.896100
      8 CAW          2.3660     0.1360    -0.3650 ca         1 6DC       0.329000
      9 CAU          1.3050    -0.8020    -0.3980 ca         1 6DC      -0.140000
     10 CAG          1.4690    -2.0550    -1.0810 cg         1 6DC       0.317000
     11 NAC          1.6190    -3.0740    -1.6310 n1         1 6DC      -0.462000
     12 CAJ          2.1750     1.3620     0.3020 ca         1 6DC      -0.127000
     13 CAH          0.9630     1.6490     0.9440 ca         1 6DC      -0.035000
     14 CAI         -0.0770     0.7130     0.9140 ca         1 6DC      -0.178000
     15 CAV          0.0760    -0.5050     0.2340 ca         1 6DC       0.384000
     16 NAR         -0.9860    -1.4230     0.2310 nu         1 6DC      -0.987000
     17 CAT         -2.3760    -1.2860     0.3040 ca         1 6DC       0.278000
     18 CAN         -3.0260    -0.1010    -0.0880 ca         1 6DC      -0.083000
     19 CAZ         -4.4340     0.0060    -0.0180 ca         1 6DC      -0.173600
     20 CAX         -5.1270     1.2550    -0.4250 c          1 6DC       0.568600
     21 OAD         -4.5200     2.2380    -0.8330 o          1 6DC      -0.530000
     22 NBA         -6.5130     1.2300    -0.3080 n          1 6DC      -0.335300
     23 CAB         -7.2780     2.4370    -0.6920 c3         1 6DC       0.082300
     24 CAM         -7.1700     0.0990     0.1580 cc         1 6DC       0.501800
     25 NAQ         -6.6030    -1.0510     0.5340 nd         1 6DC      -0.616100
     26 CAY         -5.2050    -1.0770     0.4350 ca         1 6DC       0.160400
     27 CAL         -4.5490    -2.2640     0.8100 ca         1 6DC      -0.072000
     28 CAK         -3.1480    -2.3710     0.7400 ca         1 6DC      -0.118000
     29 H1           6.7860    -0.9510     3.3060 hc         1 6DC       0.037033
     30 H2           7.9210     0.4090     3.4460 hc         1 6DC       0.037033
     31 H3           6.1830     0.6750     3.7040 hc         1 6DC       0.037033
     32 H4           6.9180     1.4940     1.4410 hc         1 6DC       0.057200
     33 H5           7.5160    -0.1190     1.0460 hc         1 6DC       0.057200
     34 H6           5.1700    -1.0440     1.2140 h1         1 6DC       0.095700
     35 H7           4.5650     0.5880     1.6210 h1         1 6DC       0.095700
     36 H8           3.7000    -1.0800    -1.3970 hn         1 6DC       0.502000
     37 H9           2.9580     2.1110     0.3310 ha         1 6DC       0.151000
     38 H10          0.8330     2.5950     1.4680 ha         1 6DC       0.127000
     39 H11         -1.0020     0.9350     1.4380 ha         1 6DC       0.135000
     40 H12         -0.6800    -2.3940     0.1410 hn         1 6DC       0.505000
     41 H13         -2.4380     0.7310    -0.4640 ha         1 6DC       0.148000
     42 H14         -7.0940     2.6730    -1.7480 h1         1 6DC       0.055033
     43 H15         -8.3550     2.2770    -0.5500 h1         1 6DC       0.055033
     44 H16         -6.9640     3.2880    -0.0740 h1         1 6DC       0.055033
     45 H17         -8.2480     0.2000     0.2060 h5         1 6DC       0.048800
     46 H18         -5.1330    -3.1130     1.1580 ha         1 6DC       0.138000
     47 H19         -2.6660    -3.2990     1.0360 ha         1 6DC       0.121000
@<TRIPOS>BOND
     1     1     2 1   
     2     1    29 1   
     3     1    30 1   
     4     1    31 1   
     5     2     3 1   
     6     2    32 1   
     7     2    33 1   
     8     3     4 1   
     9     3    34 1   
    10     3    35 1   
    11     4     5 2   
    12     4     6 2   
    13     4     7 1   
    14     7     8 1   
    15     7    36 1   
    16     8     9 ar  
    17     8    12 ar  
    18     9    10 1   
    19     9    15 ar  
    20    10    11 3   
    21    12    13 ar  
    22    12    37 1   
    23    13    14 ar  
    24    13    38 1   
    25    14    15 ar  
    26    14    39 1   
    27    15    16 1   
    28    16    17 1   
    29    16    40 1   
    30    17    18 ar  
    31    17    28 ar  
    32    18    19 ar  
    33    18    41 1   
    34    19    20 1   
    35    19    26 ar  
    36    20    21 2   
    37    20    22 1   
    38    22    23 1   
    39    22    24 1   
    40    23    42 1   
    41    23    43 1   
    42    23    44 1   
    43    24    25 2   
    44    24    45 1   
    45    25    26 1   
    46    26    27 ar  
    47    27    28 ar  
    48    27    46 1   
    49    28    47 1   
@<TRIPOS>SUBSTRUCTURE
     1 6DC         1 TEMP              0 ****  ****    0 ROOT
