@<TRIPOS>MOLECULE
6DC
   47    49     1     0     0
SMALL
abcg2


@<TRIPOS>ATOM
      1 CAA          6.1990    -1.6080     2.8210 c3         1 6DC      -0.084100
      2 CAO          6.2330    -0.4490     1.8340 c3         1 6DC      -0.044400
      3 CAP          5.0270    -0.5020     0.9040 c3         1 6DC      -0.340400
      4 SBB          5.0450     0.8440    -0.2740 s6         1 6DC       1.186100
      5 OAE          4.9130     2.0960     0.4500 o          1 6DC      -0.521000
      6 OAF          6.1530     0.6510    -1.1920 o          1 6DC      -0.521000
      7 NAS          3.6630     0.6580    -1.1940 nu         1 6DC      -0.896100
      8 CAW          2.3930     0.9510    -0.6610 ca         1 6DC       0.329000
      9 CAU          1.4970    -0.0920    -0.3630 ca         1 6DC      -0.140000
     10 CAG          1.9020    -1.4350    -0.5770 cg         1 6DC       0.317000
     11 NAC          2.2350    -2.5270    -0.7460 n1         1 6DC      -0.462000
     12 CAJ          2.0090     2.2630    -0.4650 ca         1 6DC      -0.127000
     13 CAH          0.7410     2.5220     0.0440 ca         1 6DC      -0.035000
     14 CAI         -0.1500     1.5110     0.3410 ca         1 6DC      -0.178000
     15 CAV          0.2050     0.1730     0.1380 ca         1 6DC       0.384000
     16 NAR         -0.6260    -0.8730     0.4420 nu         1 6DC      -0.987000
     17 CAT         -2.0050    -0.8200     0.6290 ca         1 6DC       0.278000
     18 CAN         -2.8260     0.0010    -0.1230 ca         1 6DC      -0.083000
     19 CAZ         -4.2040    -0.0030     0.0960 ca         1 6DC      -0.173600
     20 CAX         -5.0670     0.8710    -0.6920 c          1 6DC       0.568600
     21 OAD         -4.6790     1.6450    -1.5490 o          1 6DC      -0.530000
     22 NBA         -6.4110     0.7560    -0.3920 n          1 6DC      -0.335300
     23 CAB         -7.3530     1.5860    -1.1290 c3         1 6DC       0.082300
     24 CAM         -6.8620    -0.0990     0.5690 cc         1 6DC       0.501800
     25 NAQ         -6.1340    -0.8780     1.2780 nd         1 6DC      -0.616100
     26 CAY         -4.7800    -0.8500     1.0500 ca         1 6DC       0.160400
     27 CAL         -3.9400    -1.6960     1.7870 ca         1 6DC      -0.072000
     28 CAK         -2.5820    -1.6740     1.5860 ca         1 6DC      -0.118000
     29 H1           6.2090    -2.5680     2.3060 hc         1 6DC       0.037033
     30 H2           7.0660    -1.5730     3.4790 hc         1 6DC       0.037033
     31 H3           5.3050    -1.5700     3.4450 hc         1 6DC       0.037033
     32 H4           6.2380     0.4970     2.3770 hc         1 6DC       0.057200
     33 H5           7.1530    -0.4910     1.2480 hc         1 6DC       0.057200
     34 H6           5.0080    -1.4250     0.3210 h1         1 6DC       0.095700
     35 H7           4.0920    -0.4240     1.4630 h1         1 6DC       0.095700
     36 H8           3.7220    -0.1330    -1.8280 hn         1 6DC       0.502000
     37 H9           2.6780     3.0710    -0.7190 ha         1 6DC       0.151000
     38 H10          0.4390     3.5470     0.2120 ha         1 6DC       0.127000
     39 H11         -1.1170     1.7630     0.7520 ha         1 6DC       0.135000
     40 H12         -0.1930    -1.7590     0.6560 hn         1 6DC       0.505000
     41 H13         -2.4140     0.6380    -0.8940 ha         1 6DC       0.148000
     42 H14         -7.2740     1.3960    -2.1960 h1         1 6DC       0.055033
     43 H15         -8.3610     1.3470    -0.8040 h1         1 6DC       0.055033
     44 H16         -7.1640     2.6410    -0.9400 h1         1 6DC       0.055033
     45 H17         -7.9350    -0.0940     0.7200 h5         1 6DC       0.048800
     46 H18         -4.3750    -2.3570     2.5260 ha         1 6DC       0.138000
     47 H19         -1.9400    -2.3220     2.1710 ha         1 6DC       0.121000
@<TRIPOS>BOND
     1     1     2 1   
     2     1    29 1   
     3     1    30 1   
     4     1    31 1   
     5     2     3 1   
     6     2    32 1   
     7     2    33 1   
     8     3     4 1   
     9     3    34 1   
    10     3    35 1   
    11     4     5 2   
    12     4     6 2   
    13     4     7 1   
    14     7     8 1   
    15     7    36 1   
    16     8     9 ar  
    17     8    12 ar  
    18     9    10 1   
    19     9    15 ar  
    20    10    11 3   
    21    12    13 ar  
    22    12    37 1   
    23    13    14 ar  
    24    13    38 1   
    25    14    15 ar  
    26    14    39 1   
    27    15    16 1   
    28    16    17 1   
    29    16    40 1   
    30    17    18 ar  
    31    17    28 ar  
    32    18    19 ar  
    33    18    41 1   
    34    19    20 1   
    35    19    26 ar  
    36    20    21 2   
    37    20    22 1   
    38    22    23 1   
    39    22    24 1   
    40    23    42 1   
    41    23    43 1   
    42    23    44 1   
    43    24    25 2   
    44    24    45 1   
    45    25    26 1   
    46    26    27 ar  
    47    27    28 ar  
    48    27    46 1   
    49    28    47 1   
@<TRIPOS>SUBSTRUCTURE
     1 6DC         1 TEMP              0 ****  ****    0 ROOT
