@<TRIPOS>MOLECULE
6DD
   53    55     1     0     0
SMALL
abcg2


@<TRIPOS>ATOM
      1 C5          -3.9410    -0.7410    -0.9900 ca         1 6DD      -0.045000
      2 C4A         -4.3890     0.5830    -0.8230 ca         1 6DD      -0.248000
      3 C4          -4.5870     1.5240    -1.8810 ca         1 6DD       0.418300
      4 O4          -4.3690     1.2240    -3.1530 oh         1 6DD      -0.633300
      5 N3          -4.9920     2.7380    -1.6690 nb         1 6DD      -0.287000
      6 C2          -5.2330     3.1070    -0.3870 ca         1 6DD       0.422900
      7 NA2         -5.6790     4.3650    -0.2260 nv         1 6DD      -1.070900
      8 N1          -5.0950     2.3460     0.6790 nb         1 6DD      -0.284000
      9 C8A         -4.6750     1.0830     0.4670 ca         1 6DD       0.108000
     10 C8          -4.5090     0.2110     1.5670 ca         1 6DD      -0.119000
     11 C7          -4.0820    -1.0740     1.3770 ca         1 6DD      -0.049000
     12 C6          -3.7900    -1.5720     0.0890 ca         1 6DD      -0.122300
     13 C9          -3.3030    -2.9840    -0.0700 c3         1 6DD       0.146300
     14 N10         -2.0200    -3.1810     0.5970 n          1 6DD      -0.233400
     15 CA1         -1.9030    -4.0280     1.6500 c          1 6DD       0.606900
     16 OA1         -2.8150    -4.6580     2.1450 o          1 6DD      -0.627100
     17 C14         -0.9100    -2.4200     0.1720 ca         1 6DD      -0.070000
     18 C15         -0.6210    -2.2960    -1.1850 ca         1 6DD      -0.149500
     19 C16          0.4560    -1.5340    -1.5990 ca         1 6DD      -0.061500
     20 C13         -0.1100    -1.7630     1.1010 ca         1 6DD      -0.149500
     21 C12          0.9900    -1.0320     0.6810 ca         1 6DD      -0.061500
     22 C11          1.2870    -0.9090    -0.6730 ca         1 6DD      -0.107600
     23 C            2.4290    -0.0860    -1.1770 c          1 6DD       0.592700
     24 O            2.3730     0.4580    -2.2740 o          1 6DD      -0.630100
     25 N            3.4740     0.0360    -0.3500 ns         1 6DD      -0.418900
     26 CA           4.6820     0.7340    -0.7320 c3         1 6DD      -0.049300
     27 CT           5.4850    -0.0170    -1.8230 c          1 6DD       0.720000
     28 O2           5.2480    -1.2260    -1.9860 o          1 6DD      -0.741000
     29 O1           6.3360     0.6730    -2.4190 o          1 6DD      -0.741000
     30 CB           5.5520     0.9570     0.5070 c3         1 6DD      -0.057400
     31 CG           4.8740     1.7920     1.5820 c3         1 6DD      -0.201400
     32 CD           5.7240     2.0880     2.8300 c          1 6DD       0.712000
     33 OE2          6.9200     1.7360     2.8200 o          1 6DD      -0.759000
     34 OE1          5.1360     2.6750     3.7630 o          1 6DD      -0.759000
     35 H1          -3.7010    -1.1300    -1.9740 ha         1 6DD       0.102000
     36 H3          -5.6420     5.0050    -0.9990 hn         1 6DD       0.496500
     37 H4          -5.7420     4.7510     0.6990 hn         1 6DD       0.496500
     38 H5          -4.7300     0.5820     2.5590 ha         1 6DD       0.130000
     39 H6          -3.9720    -1.7280     2.2350 ha         1 6DD       0.123000
     40 H7          -4.0080    -3.6870     0.3720 h1         1 6DD       0.058700
     41 H8          -3.2180    -3.2460    -1.1250 h1         1 6DD       0.058700
     42 H9          -0.8690    -4.1030     2.0170 h5         1 6DD       0.033200
     43 H10         -1.2260    -2.8030    -1.9240 ha         1 6DD       0.103000
     44 H11          0.6630    -1.4420    -2.6570 ha         1 6DD       0.140000
     45 H12         -0.3570    -1.7960     2.1540 ha         1 6DD       0.103000
     46 H13          1.5810    -0.5170     1.4270 ha         1 6DD       0.140000
     47 H14          3.5420    -0.6060     0.4240 hn         1 6DD       0.299500
     48 H15          4.3960     1.7120    -1.1290 h1         1 6DD       0.055700
     49 H17          5.8500    -0.0160     0.9140 hc         1 6DD       0.051700
     50 H18          6.4710     1.4460     0.1860 hc         1 6DD       0.051700
     51 H19          4.5610     2.7500     1.1490 hc         1 6DD       0.007700
     52 H20          3.9440     1.3140     1.9060 hc         1 6DD       0.007700
     53 H2          -4.1000     0.3070    -3.2770 ho         1 6DD       0.486000
@<TRIPOS>BOND
     1     1     2 ar  
     2     1    12 ar  
     3     1    35 1   
     4     2     3 ar  
     5     2     9 ar  
     6     3     4 1   
     7     3     5 ar  
     8     4    53 1   
     9     5     6 ar  
    10     6     7 1   
    11     6     8 ar  
    12     7    36 1   
    13     7    37 1   
    14     8     9 ar  
    15     9    10 ar  
    16    10    11 ar  
    17    10    38 1   
    18    11    12 ar  
    19    11    39 1   
    20    12    13 1   
    21    13    14 1   
    22    13    40 1   
    23    13    41 1   
    24    14    15 1   
    25    14    17 1   
    26    15    16 2   
    27    15    42 1   
    28    17    18 ar  
    29    17    20 ar  
    30    18    19 ar  
    31    18    43 1   
    32    19    22 ar  
    33    19    44 1   
    34    20    21 ar  
    35    20    45 1   
    36    21    22 ar  
    37    21    46 1   
    38    22    23 1   
    39    23    24 2   
    40    23    25 1   
    41    25    26 1   
    42    25    47 1   
    43    26    27 1   
    44    26    30 1   
    45    26    48 1   
    46    27    28 1   
    47    27    29 1   
    48    30    31 1   
    49    30    49 1   
    50    30    50 1   
    51    31    32 1   
    52    31    51 1   
    53    31    52 1   
    54    32    33 1   
    55    32    34 1   
@<TRIPOS>SUBSTRUCTURE
     1 6DD         1 TEMP              0 ****  ****    0 ROOT
