@<TRIPOS>MOLECULE
6DD
   53    55     1     0     0
SMALL
No Charge or Current Charge


@<TRIPOS>ATOM
      1 C5          -4.0960    -0.5170    -0.9330 ca         1 6DD      -0.045000
      2 C4A         -4.3480     0.8190    -0.5390 ca         1 6DD      -0.248000
      3 C4          -4.6770     1.8460    -1.4550 ca         1 6DD       0.418300
      4 O4          -4.7740     1.6110    -2.7920 oh         1 6DD      -0.633300
      5 N3          -4.9110     3.1050    -1.0580 nb         1 6DD      -0.287000
      6 C2          -4.8160     3.3270     0.2540 ca         1 6DD       0.422900
      7 NA2         -5.0490     4.5960     0.6630 nv         1 6DD      -1.070900
      8 N1          -4.5140     2.4470     1.2160 nb         1 6DD      -0.284000
      9 C8A         -4.2760     1.1770     0.8290 ca         1 6DD       0.108000
     10 C8          -3.9530     0.1940     1.7790 ca         1 6DD      -0.119000
     11 C7          -3.7030    -1.1300     1.3870 ca         1 6DD      -0.049000
     12 C6          -3.7700    -1.4910     0.0290 ca         1 6DD      -0.122300
     13 C9          -3.4900    -2.9330    -0.3910 c3         1 6DD       0.146300
     14 N10         -2.1620    -3.4460     0.0390 n          1 6DD      -0.233400
     15 CA1         -2.0760    -4.7620     0.5530 c          1 6DD       0.606900
     16 OA1         -3.0450    -5.5020     0.7080 o          1 6DD      -0.627100
     17 C14         -1.0000    -2.6030    -0.1310 ca         1 6DD      -0.070000
     18 C15         -0.8340    -1.8630    -1.3200 ca         1 6DD      -0.149500
     19 C16          0.3570    -1.1640    -1.5760 ca         1 6DD      -0.061500
     20 C13          0.1130    -2.7350     0.7240 ca         1 6DD      -0.149500
     21 C12          1.3080    -2.0380     0.4740 ca         1 6DD      -0.061500
     22 C11          1.4440    -1.2290    -0.6790 ca         1 6DD      -0.107600
     23 C            2.7160    -0.4600    -0.9880 c          1 6DD       0.592700
     24 O            2.8270     0.2270    -1.9970 o          1 6DD      -0.630100
     25 N            3.7480    -0.5810    -0.0770 ns         1 6DD      -0.418900
     26 CA           5.0620     0.1050    -0.1580 c3         1 6DD      -0.049300
     27 CT           6.2040    -0.8840     0.2300 c          1 6DD       0.720000
     28 O2           6.0820    -1.5430     1.2550 o          1 6DD      -0.741000
     29 O1           7.1330    -1.0300    -0.5520 o          1 6DD      -0.741000
     30 CB           5.1100     1.3880     0.7160 c3         1 6DD      -0.057400
     31 CG           4.1010     2.4920     0.3050 c3         1 6DD      -0.201400
     32 CD           4.3200     3.7540     1.1620 c          1 6DD       0.712000
     33 OE2          5.1250     4.5860     0.7710 o          1 6DD      -0.759000
     34 OE1          3.7190     3.8460     2.2220 o          1 6DD      -0.759000
     35 H1          -4.1450    -0.8120    -1.9780 ha         1 6DD       0.102000
     36 H3          -5.0450     5.3330    -0.0390 hn         1 6DD       0.496500
     37 H4          -4.7630     4.8590     1.6020 hn         1 6DD       0.496500
     38 H5          -3.8950     0.4600     2.8320 ha         1 6DD       0.130000
     39 H6          -3.4520    -1.8750     2.1380 ha         1 6DD       0.123000
     40 H7          -4.2920    -3.5550     0.0260 h1         1 6DD       0.058700
     41 H8          -3.5560    -3.0240    -1.4830 h1         1 6DD       0.058700
     42 H9          -1.0400    -5.0690     0.7880 h5         1 6DD       0.033200
     43 H10         -1.6300    -1.8180    -2.0570 ha         1 6DD       0.103000
     44 H11          0.4370    -0.5790    -2.4900 ha         1 6DD       0.140000
     45 H12          0.0500    -3.3500     1.6180 ha         1 6DD       0.103000
     46 H13          2.1210    -2.1460     1.1880 ha         1 6DD       0.140000
     47 H14          3.5910    -1.1900     0.7150 hn         1 6DD       0.299500
     48 H15          5.2390     0.3950    -1.2010 h1         1 6DD       0.055700
     49 H17          4.9410     1.1170     1.7660 hc         1 6DD       0.051700
     50 H18          6.1240     1.8020     0.6610 hc         1 6DD       0.051700
     51 H19          4.3050     2.7060    -0.7510 hc         1 6DD       0.007700
     52 H20          3.1020     2.0770     0.4870 hc         1 6DD       0.007700
     53 H2          -4.5800     0.6630    -2.9280 ho         1 6DD       0.486000
@<TRIPOS>BOND
     1     1     2 ar  
     2     1    12 ar  
     3     1    35 1   
     4     2     3 ar  
     5     2     9 ar  
     6     3     4 1   
     7     3     5 ar  
     8     4    53 1   
     9     5     6 ar  
    10     6     7 1   
    11     6     8 ar  
    12     7    36 1   
    13     7    37 1   
    14     8     9 ar  
    15     9    10 ar  
    16    10    11 ar  
    17    10    38 1   
    18    11    12 ar  
    19    11    39 1   
    20    12    13 1   
    21    13    14 1   
    22    13    40 1   
    23    13    41 1   
    24    14    15 1   
    25    14    17 1   
    26    15    16 2   
    27    15    42 1   
    28    17    18 ar  
    29    17    20 ar  
    30    18    19 ar  
    31    18    43 1   
    32    19    22 ar  
    33    19    44 1   
    34    20    21 ar  
    35    20    45 1   
    36    21    22 ar  
    37    21    46 1   
    38    22    23 1   
    39    23    24 2   
    40    23    25 1   
    41    25    26 1   
    42    25    47 1   
    43    26    27 1   
    44    26    30 1   
    45    26    48 1   
    46    27    28 1   
    47    27    29 1   
    48    30    31 1   
    49    30    49 1   
    50    30    50 1   
    51    31    32 1   
    52    31    51 1   
    53    31    52 1   
    54    32    33 1   
    55    32    34 1   
@<TRIPOS>SUBSTRUCTURE
     1 6DD         1 TEMP              0 ****  ****    0 ROOT
