@<TRIPOS>MOLECULE
6DE
   34    35     1     0     0
SMALL
abcg2


@<TRIPOS>ATOM
      1 O14          1.1040    -1.7240     2.9820 o          1 6DE      -0.514000
      2 C13          0.5750    -0.6470     2.8140 c          1 6DE       0.650700
      3 O15          0.0990     0.0950     3.8050 os         1 6DE      -0.446100
      4 C16          0.1910    -0.4150     5.1420 c3         1 6DE       0.168600
      5 C17         -0.4510     0.5950     6.0620 c3         1 6DE      -0.097100
      6 C12          0.3870    -0.0180     1.5140 cc         1 6DE      -0.283600
      7 C18          0.8420    -0.5420     0.3130 cd         1 6DE      -0.027300
      8 C19          1.6110    -1.7750     0.0100 c3         1 6DE      -0.040800
      9 C10         -0.2680     1.1970     1.1730 cc         1 6DE       0.322300
     10 C11         -0.9540     2.1890     2.0460 c3         1 6DE      -0.120400
     11 N9          -0.2160     1.3900    -0.1230 nd         1 6DE      -0.518800
     12 N1           0.4540     0.3360    -0.6260 na         1 6DE       0.214000
     13 C2           0.6710     0.2660    -2.0200 ca         1 6DE       0.008800
     14 C3          -0.0200    -0.6550    -2.8020 ca         1 6DE       0.122000
     15 CL4         -1.1600    -1.7230    -2.0710 cl         1 6DE      -0.172000
     16 C5           0.1950    -0.7150    -4.1700 ca         1 6DE      -0.101000
     17 C6           1.0940     0.1630    -4.7580 ca         1 6DE      -0.091000
     18 C7           1.7760     1.0950    -3.9870 ca         1 6DE      -0.105000
     19 C8           1.5650     1.1420    -2.6180 ca         1 6DE      -0.077000
     20 H161         1.2400    -0.5730     5.4060 h1         1 6DE       0.047200
     21 H162        -0.3180    -1.3790     5.2060 h1         1 6DE       0.047200
     22 H171        -0.4060     0.2260     7.0860 hc         1 6DE       0.045367
     23 H172         0.0660     1.5540     6.0290 hc         1 6DE       0.045367
     24 H173        -1.4990     0.7550     5.8080 hc         1 6DE       0.045367
     25 H191         1.9910    -1.7700    -1.0100 hc         1 6DE       0.065367
     26 H192         2.4550    -1.8730     0.6880 hc         1 6DE       0.065367
     27 H193         0.9870    -2.6600     0.1340 hc         1 6DE       0.065367
     28 H111        -0.2630     2.6380     2.7600 hc         1 6DE       0.053700
     29 H112        -1.3790     2.9850     1.4370 hc         1 6DE       0.053700
     30 H113        -1.7560     1.7280     2.6210 hc         1 6DE       0.053700
     31 H5          -0.3410    -1.4360    -4.7710 ha         1 6DE       0.135000
     32 H6           1.2580     0.1150    -5.8260 ha         1 6DE       0.123000
     33 H7           2.4740     1.7780    -4.4490 ha         1 6DE       0.126000
     34 H8           2.0930     1.8570    -2.0010 ha         1 6DE       0.137000
@<TRIPOS>BOND
     1     1     2 2   
     2     2     3 1   
     3     2     6 1   
     4     3     4 1   
     5     4     5 1   
     6     4    20 1   
     7     4    21 1   
     8     5    22 1   
     9     5    23 1   
    10     5    24 1   
    11     6     7 2   
    12     6     9 1   
    13     7     8 1   
    14     7    12 1   
    15     8    25 1   
    16     8    26 1   
    17     8    27 1   
    18     9    10 1   
    19     9    11 2   
    20    10    28 1   
    21    10    29 1   
    22    10    30 1   
    23    11    12 1   
    24    12    13 1   
    25    13    14 ar  
    26    13    19 ar  
    27    14    15 1   
    28    14    16 ar  
    29    16    17 ar  
    30    16    31 1   
    31    17    18 ar  
    32    17    32 1   
    33    18    19 ar  
    34    18    33 1   
    35    19    34 1   
@<TRIPOS>SUBSTRUCTURE
     1 6DE         1 TEMP              0 ****  ****    0 ROOT
