@<TRIPOS>MOLECULE
6DE
   34    35     1     0     0
SMALL
No Charge or Current Charge


@<TRIPOS>ATOM
      1 O14          1.2670    -1.5750     2.9040 o          1 6DE      -0.514000
      2 C13          0.6180    -0.5480     2.7630 c          1 6DE       0.650700
      3 O15          0.0640     0.1150     3.8240 os         1 6DE      -0.446100
      4 C16          0.2570    -0.4180     5.1440 c3         1 6DE       0.168600
      5 C17         -0.4660     0.5180     6.1250 c3         1 6DE      -0.097100
      6 C12          0.3670     0.0720     1.4380 cc         1 6DE      -0.283600
      7 C18          0.8240    -0.4110     0.2380 cd         1 6DE      -0.027300
      8 C19          1.6680    -1.6300    -0.0840 c3         1 6DE      -0.040800
      9 C10         -0.3730     1.2520     1.1480 cc         1 6DE       0.322300
     10 C11         -1.0600     2.1300     2.1600 c3         1 6DE      -0.120400
     11 N9          -0.4210     1.5480    -0.1360 nd         1 6DE      -0.518800
     12 N1           0.3040     0.5110    -0.6780 na         1 6DE       0.214000
     13 C2           0.5910     0.3300    -2.0300 ca         1 6DE       0.008800
     14 C3          -0.1870    -0.5380    -2.8270 ca         1 6DE       0.122000
     15 Cl4         -1.5510    -1.4290    -2.1460 cl         1 6DE      -0.172000
     16 C5           0.1220    -0.7110    -4.1880 ca         1 6DE      -0.101000
     17 C6           1.2030    -0.0190    -4.7610 ca         1 6DE      -0.091000
     18 C7           1.9770     0.8490    -3.9720 ca         1 6DE      -0.105000
     19 C8           1.6710     1.0240    -2.6110 ca         1 6DE      -0.077000
     20 H161         1.3240    -0.4620     5.3980 h1         1 6DE       0.047200
     21 H162        -0.1650    -1.4290     5.2240 h1         1 6DE       0.047200
     22 H171        -0.3500     0.1540     7.1520 hc         1 6DE       0.045367
     23 H172        -0.0500     1.5310     6.0690 hc         1 6DE       0.045367
     24 H173        -1.5370     0.5650     5.8950 hc         1 6DE       0.045367
     25 H191         1.9700    -1.6770    -1.1360 hc         1 6DE       0.065367
     26 H192         2.5880    -1.6350     0.5120 hc         1 6DE       0.065367
     27 H193         1.1190    -2.5510     0.1420 hc         1 6DE       0.065367
     28 H111        -0.3400     2.5370     2.8790 hc         1 6DE       0.053700
     29 H112        -1.5590     2.9780     1.6770 hc         1 6DE       0.053700
     30 H113        -1.8250     1.5690     2.7100 hc         1 6DE       0.053700
     31 H5          -0.4780    -1.3820    -4.7980 ha         1 6DE       0.135000
     32 H6           1.4400    -0.1540    -5.8140 ha         1 6DE       0.123000
     33 H7           2.8130     1.3860    -4.4150 ha         1 6DE       0.126000
     34 H8           2.2740     1.6970    -2.0040 ha         1 6DE       0.137000
@<TRIPOS>BOND
     1     1     2 2   
     2     2     3 1   
     3     2     6 1   
     4     3     4 1   
     5     4     5 1   
     6     4    20 1   
     7     4    21 1   
     8     5    22 1   
     9     5    23 1   
    10     5    24 1   
    11     6     7 2   
    12     6     9 1   
    13     7     8 1   
    14     7    12 1   
    15     8    25 1   
    16     8    26 1   
    17     8    27 1   
    18     9    10 1   
    19     9    11 2   
    20    10    28 1   
    21    10    29 1   
    22    10    30 1   
    23    11    12 1   
    24    12    13 1   
    25    13    14 ar  
    26    13    19 ar  
    27    14    15 1   
    28    14    16 ar  
    29    16    17 ar  
    30    16    31 1   
    31    17    18 ar  
    32    17    32 1   
    33    18    19 ar  
    34    18    33 1   
    35    19    34 1   
@<TRIPOS>SUBSTRUCTURE
     1 6DE         1 TEMP              0 ****  ****    0 ROOT
