@<TRIPOS>MOLECULE
6DG
   46    50     1     0     0
SMALL
bcc


@<TRIPOS>ATOM
      1 C2           6.4270     0.2710    -0.6330 ca         1 6DG      -0.144000
      2 C3           4.3290    -1.1740     0.4740 ca         1 6DG      -0.119000
      3 C5          -2.2820     1.2440     0.7720 c5         1 6DG       0.168500
      4 C6           0.5810     1.4210     0.4290 c6         1 6DG      -0.080400
      5 C8          -7.7770    -0.5800    -0.0440 cc         1 6DG      -0.314300
      6 C9          -7.0580     0.4150     0.5420 cd         1 6DG       0.000700
      7 F27          4.8740     1.6960    -1.6440 f          1 6DG      -0.144900
      8 C12          5.1110     0.6270    -0.8640 ca         1 6DG       0.116900
      9 C13          4.0400    -0.0710    -0.3280 ca         1 6DG      -0.097300
     10 C11          5.6410    -1.5290     0.7040 ca         1 6DG       0.118900
     11 F26          5.8950    -2.5970     1.4780 f          1 6DG      -0.138900
     12 C1           6.7020    -0.8280     0.1640 ca         1 6DG      -0.140000
     13 C19          2.6130     0.3500    -0.5540 c6         1 6DG       0.152400
     14 C18          2.0630     1.1390     0.6520 c6         1 6DG       0.143500
     15 N20          2.7580     2.3790     0.9250 n8         1 6DG      -0.891800
     16 O25          1.8560    -0.8190    -0.7710 os         1 6DG      -0.396600
     17 C7           0.5010    -0.5550    -1.0530 c6         1 6DG       0.130400
     18 C17         -0.1900     0.1400     0.1180 c6         1 6DG       0.157500
     19 N24         -1.5710     0.4180    -0.2160 n3         1 6DG      -0.749600
     20 C4          -2.3650    -0.7820    -0.5480 c5         1 6DG       0.270000
     21 C15         -3.6890     0.8180     0.5580 cc         1 6DG       0.364600
     22 N21         -4.8680     1.2780     0.9420 nd         1 6DG      -0.546100
     23 N23         -5.7160     0.3800     0.4240 na         1 6DG       0.058200
     24 C16         -5.0790    -0.6470    -0.2860 cd         1 6DG       0.403500
     25 C14         -3.7380    -0.3430    -0.1920 cc         1 6DG      -0.296800
     26 N22         -5.7820    -1.6300    -0.8670 nd         1 6DG      -0.638000
     27 C10         -7.0820    -1.5930    -0.7460 cc         1 6DG       0.442200
     28 H1           7.2300     0.8450    -1.0750 ha         1 6DG       0.156000
     29 H2           3.5300    -1.7550     0.9170 ha         1 6DG       0.167000
     30 H4          -2.1180     2.3090     0.5970 h1         1 6DG       0.061700
     31 H5           0.1880     1.9120     1.3220 hc         1 6DG       0.059700
     32 H6           0.4590     2.1210    -0.4070 hc         1 6DG       0.059700
     33 H7          -8.8530    -0.5920     0.0280 ha         1 6DG       0.161000
     34 H8          -7.4820     1.2380     1.0990 h4         1 6DG       0.180000
     35 H9           7.7230    -1.1280     0.3590 ha         1 6DG       0.156000
     36 H10          2.5500     1.0030    -1.4380 h1         1 6DG       0.054700
     37 H11          2.1620     0.4990     1.5360 h1         1 6DG       0.069700
     38 H12          3.7260     2.2070     1.1670 hn         1 6DG       0.350300
     39 H13          2.7590     2.9730     0.1050 hn         1 6DG       0.350300
     40 H15          0.4040     0.0770    -1.9480 h1         1 6DG       0.058200
     41 H16          0.0450    -1.5200    -1.2750 h1         1 6DG       0.058200
     42 H17         -0.1250    -0.5260     0.9990 h1         1 6DG       0.032700
     43 H18         -2.2480    -1.0470    -1.6010 h1         1 6DG       0.052200
     44 H19         -7.6400    -2.3930    -1.2170 h4         1 6DG       0.031100
     45 H14         -2.0620    -1.6610     0.0420 h1         1 6DG       0.052200
     46 H3          -1.9780     1.0320     1.8090 h1         1 6DG       0.061700
@<TRIPOS>BOND
     1     1     8 ar  
     2     1    12 ar  
     3     1    28 1   
     4     2     9 ar  
     5     2    10 ar  
     6     2    29 1   
     7     3    19 1   
     8     3    21 1   
     9     3    30 1   
    10     3    46 1   
    11     4    14 1   
    12     4    18 1   
    13     4    31 1   
    14     4    32 1   
    15     5     6 2   
    16     5    27 1   
    17     5    33 1   
    18     6    23 1   
    19     6    34 1   
    20     7     8 1   
    21     8     9 ar  
    22     9    13 1   
    23    10    11 1   
    24    10    12 ar  
    25    12    35 1   
    26    13    14 1   
    27    13    16 1   
    28    13    36 1   
    29    14    15 1   
    30    14    37 1   
    31    15    38 1   
    32    15    39 1   
    33    16    17 1   
    34    17    18 1   
    35    17    40 1   
    36    17    41 1   
    37    18    19 1   
    38    18    42 1   
    39    19    20 1   
    40    20    25 1   
    41    20    43 1   
    42    20    45 1   
    43    21    22 2   
    44    21    25 1   
    45    22    23 1   
    46    23    24 1   
    47    24    25 2   
    48    24    26 1   
    49    26    27 2   
    50    27    44 1   
@<TRIPOS>SUBSTRUCTURE
     1 6DG         1 TEMP              0 ****  ****    0 ROOT
