@<TRIPOS>MOLECULE
6DG
   46    50     1     0     0
SMALL
No Charge or Current Charge


@<TRIPOS>ATOM
      1 C2           6.4460     0.2010    -1.0710 ca         1 6DG      -0.126000
      2 C3           4.5250    -0.9990     0.5940 ca         1 6DG      -0.101000
      3 C5          -2.3980     1.1010     1.1620 c5         1 6DG       0.168500
      4 C6           0.5720     1.3810     0.5870 c6         1 6DG      -0.080400
      5 C8          -7.7310    -0.4400    -0.5060 cc         1 6DG      -0.231000
      6 C9          -7.1900     0.5830     0.2710 cd         1 6DG      -0.032000
      7 F27          4.7340     1.4620    -2.1280 f          1 6DG      -0.180000
      8 C12          5.0890     0.5460    -1.1990 ca         1 6DG       0.152000
      9 C13          4.1140    -0.0500    -0.3680 ca         1 6DG      -0.097300
     10 C11          5.8810    -1.3420     0.7180 ca         1 6DG       0.154000
     11 F26          6.2620    -2.2520     1.6410 f          1 6DG      -0.174000
     12 C1           6.8440    -0.7450    -0.1100 ca         1 6DG      -0.122000
     13 C19          2.6290     0.3190    -0.4970 c6         1 6DG       0.175600
     14 C18          2.0930     1.1240     0.7360 c6         1 6DG       0.143500
     15 N20          2.8100     2.4110     0.9480 n8         1 6DG      -1.002200
     16 O25          1.8720    -0.9020    -0.6410 os         1 6DG      -0.443000
     17 C7           0.4590    -0.6940    -0.8750 c6         1 6DG       0.153600
     18 C17         -0.2070     0.0570     0.3250 c6         1 6DG       0.157500
     19 N24         -1.6590     0.3170     0.0880 n3         1 6DG      -0.749600
     20 C4          -2.5080    -0.8830    -0.2510 c5         1 6DG       0.270000
     21 C15         -3.8320     0.8240     0.8030 cc         1 6DG       0.364600
     22 N21         -5.0090     1.3850     1.0740 nd         1 6DG      -0.546100
     23 N23         -5.8060     0.4970     0.3490 na         1 6DG       0.108900
     24 C16         -5.1360    -0.5330    -0.3080 cd         1 6DG       0.403500
     25 C14         -3.8490    -0.2970    -0.0000 cc         1 6DG      -0.296800
     26 N22         -5.5910    -1.5750    -1.0850 nd         1 6DG      -0.638000
     27 C10         -6.9210    -1.4630    -1.1440 cc         1 6DG       0.376900
     28 H1           7.1860     0.6690    -1.7170 ha         1 6DG       0.138000
     29 H2           3.7940    -1.4760     1.2420 ha         1 6DG       0.149000
     30 H4          -2.1810     2.1770     1.1270 h1         1 6DG       0.061700
     31 H5           0.2010     1.8650     1.5000 hc         1 6DG       0.059700
     32 H6           0.3890     2.0800    -0.2400 hc         1 6DG       0.059700
     33 H7          -8.8040    -0.4940    -0.6540 ha         1 6DG       0.143000
     34 H8          -7.7140     1.3820     0.7830 h4         1 6DG       0.162000
     35 H9           7.8930    -1.0160    -0.0060 ha         1 6DG       0.138000
     36 H10          2.4770     0.9190    -1.4070 h1         1 6DG       0.054700
     37 H11          2.2510     0.5120     1.6380 h1         1 6DG       0.069700
     38 H12          3.8170     2.2210     1.0230 hn         1 6DG       0.405500
     39 H13          2.7400     2.9790     0.0950 hn         1 6DG       0.405500
     40 H15          0.3250    -0.1180    -1.8020 h1         1 6DG       0.058200
     41 H16         -0.0140    -1.6750    -1.0150 h1         1 6DG       0.058200
     42 H17         -0.0990    -0.5810     1.2150 h1         1 6DG       0.032700
     43 H18         -2.3890    -1.2090    -1.2940 h1         1 6DG       0.052200
     44 H19         -7.3860    -2.2380    -1.7380 h4         1 6DG       0.031100
     45 H14         -2.3240    -1.7330     0.4210 h1         1 6DG       0.052200
     46 H3          -2.1880     0.7250     2.1730 h1         1 6DG       0.061700
@<TRIPOS>BOND
     1     1     8 ar  
     2     1    12 ar  
     3     1    28 1   
     4     2     9 ar  
     5     2    10 ar  
     6     2    29 1   
     7     3    19 1   
     8     3    21 1   
     9     3    30 1   
    10     3    46 1   
    11     4    14 1   
    12     4    18 1   
    13     4    31 1   
    14     4    32 1   
    15     5     6 2   
    16     5    27 1   
    17     5    33 1   
    18     6    23 1   
    19     6    34 1   
    20     7     8 1   
    21     8     9 ar  
    22     9    13 1   
    23    10    11 1   
    24    10    12 ar  
    25    12    35 1   
    26    13    14 1   
    27    13    16 1   
    28    13    36 1   
    29    14    15 1   
    30    14    37 1   
    31    15    38 1   
    32    15    39 1   
    33    16    17 1   
    34    17    18 1   
    35    17    40 1   
    36    17    41 1   
    37    18    19 1   
    38    18    42 1   
    39    19    20 1   
    40    20    25 1   
    41    20    43 1   
    42    20    45 1   
    43    21    22 2   
    44    21    25 1   
    45    22    23 1   
    46    23    24 1   
    47    24    25 2   
    48    24    26 1   
    49    26    27 2   
    50    27    44 1   
@<TRIPOS>SUBSTRUCTURE
     1 6DG         1 TEMP              0 ****  ****    0 ROOT
