@<TRIPOS>MOLECULE
6DH
   28    29     1     0     0
SMALL
No Charge or Current Charge


@<TRIPOS>ATOM
      1 F01          4.5020     0.7530     0.5490 f          1 6DH      -0.115000
      2 F02          3.7930     1.2510    -1.4450 f          1 6DH      -0.115000
      3 F            4.5130    -0.7500    -1.0220 f          1 6DH      -0.115000
      4 C01          3.8010     0.2780    -0.5050 c3         1 6DH       0.356300
      5 O           -6.5740     0.1710    -1.4450 oh         1 6DH      -0.656000
      6 C02         -5.8820     0.4450    -0.2230 c3         1 6DH       0.163600
      7 C03         -4.3850     0.1210    -0.3920 c3         1 6DH      -0.076400
      8 N01         -1.1580     0.9630     0.2200 na         1 6DH      -0.312600
      9 C05         -2.0990     0.0700     0.7250 cc         1 6DH       0.433800
     10 C06          2.1550    -1.4510     0.4320 ca         1 6DH      -0.090000
     11 N           -1.5310    -1.1130     1.0340 nd         1 6DH      -0.576100
     12 C07          2.3890    -0.1470    -0.0880 ca         1 6DH      -0.183300
     13 C08          1.3040     0.7590    -0.1930 ca         1 6DH      -0.058000
     14 C09          0.8600    -1.8520     0.8300 ca         1 6DH      -0.055000
     15 C10          0.0390     0.3160     0.2140 ca         1 6DH      -0.093200
     16 C           -0.1900    -0.9340     0.7050 ca         1 6DH       0.099400
     17 H1          -7.5210     0.3900    -1.2910 ho         1 6DH       0.444000
     18 H2          -5.9970     1.5030     0.0490 h1         1 6DH       0.013200
     19 H3          -6.2970    -0.1620     0.5920 h1         1 6DH       0.013200
     20 H4          -4.2770    -0.9340    -0.6750 hc         1 6DH       0.072200
     21 H5          -3.9790     0.7170    -1.2180 hc         1 6DH       0.072200
     22 H6          -3.6710     1.4440     1.1750 hc         1 6DH       0.054200
     23 H7          -3.9710    -0.2010     1.7140 hc         1 6DH       0.054200
     24 H8          -1.3450     1.9110    -0.0820 hn         1 6DH       0.359000
     25 H9           2.9780    -2.1560     0.5330 ha         1 6DH       0.132000
     26 H11          1.4390     1.7700    -0.5730 ha         1 6DH       0.131000
     27 H12          0.6810    -2.8490     1.2260 ha         1 6DH       0.137000
     28 C04         -3.5600     0.3910     0.8870 c3         1 6DH      -0.092700
@<TRIPOS>BOND
     1     1     4 1   
     2     2     4 1   
     3     3     4 1   
     4     4    12 1   
     5     5     6 1   
     6     5    17 1   
     7     6     7 1   
     8     6    18 1   
     9     6    19 1   
    10     7    20 1   
    11     7    21 1   
    12     7    28 1   
    13     8     9 1   
    14     8    15 1   
    15     8    24 1   
    16     9    11 2   
    17     9    28 1   
    18    10    12 ar  
    19    10    14 ar  
    20    10    25 1   
    21    11    16 1   
    22    12    13 ar  
    23    13    15 ar  
    24    13    26 1   
    25    14    16 ar  
    26    14    27 1   
    27    15    16 ar  
    28    22    28 1   
    29    23    28 1   
@<TRIPOS>SUBSTRUCTURE
     1 6DH         1 TEMP              0 ****  ****    0 ROOT
