@<TRIPOS>MOLECULE
6DH
   28    29     1     0     0
SMALL
bcc


@<TRIPOS>ATOM
      1 F01          4.2700     0.7120     1.1170 f          1 6DH      -0.236300
      2 F02          4.0770     1.1210    -0.9810 f          1 6DH      -0.236300
      3 F            4.6270    -0.8500    -0.3170 f          1 6DH      -0.236300
      4 C01          3.8360     0.1920    -0.0440 c3         1 6DH       0.720200
      5 O           -6.7460    -0.5180    -0.7740 oh         1 6DH      -0.593800
      6 C02         -5.8840     0.3080    -0.0240 c3         1 6DH       0.140400
      7 C03         -4.4520    -0.1160    -0.2880 c3         1 6DH      -0.076400
      8 N01         -1.0300     1.2030     0.2600 na         1 6DH      -0.262300
      9 C05         -2.0580     0.3190     0.3350 cc         1 6DH       0.433800
     10 C06          1.9960    -1.5220     0.0510 ca         1 6DH      -0.108000
     11 N           -1.6540    -0.9240     0.3020 nd         1 6DH      -0.576100
     12 C07          2.3890    -0.1770     0.0200 ca         1 6DH      -0.183300
     13 C08          1.4590     0.8540     0.0840 ca         1 6DH      -0.076000
     14 C09          0.6610    -1.8760     0.1410 ca         1 6DH      -0.073000
     15 C10          0.1300     0.4830     0.1780 ca         1 6DH      -0.093200
     16 C           -0.2880    -0.8600     0.2060 ca         1 6DH       0.099400
     17 H1          -7.6510    -0.2420    -0.6020 ho         1 6DH       0.405000
     18 H2          -6.0070     1.3660    -0.2930 h1         1 6DH       0.013200
     19 H3          -6.0880     0.2320     1.0530 h1         1 6DH       0.013200
     20 H4          -4.3170    -1.1570     0.0090 hc         1 6DH       0.072200
     21 H5          -4.2410    -0.0550    -1.3590 hc         1 6DH       0.072200
     22 H6          -3.5560     1.8040     0.1510 hc         1 6DH       0.054200
     23 H7          -3.7220     0.7620     1.5430 hc         1 6DH       0.054200
     24 H8          -1.1160     2.2080     0.2600 hn         1 6DH       0.308700
     25 H9           2.7370    -2.3070     0.0040 ha         1 6DH       0.150000
     26 H11          1.7510     1.8960     0.0600 ha         1 6DH       0.149000
     27 H12          0.3660    -2.9170     0.1640 ha         1 6DH       0.155000
     28 C04         -3.4710     0.7650     0.4770 c3         1 6DH      -0.092700
@<TRIPOS>BOND
     1     1     4 1   
     2     2     4 1   
     3     3     4 1   
     4     4    12 1   
     5     5     6 1   
     6     5    17 1   
     7     6     7 1   
     8     6    18 1   
     9     6    19 1   
    10     7    20 1   
    11     7    21 1   
    12     7    28 1   
    13     8     9 1   
    14     8    15 1   
    15     8    24 1   
    16     9    11 2   
    17     9    28 1   
    18    10    12 ar  
    19    10    14 ar  
    20    10    25 1   
    21    11    16 1   
    22    12    13 ar  
    23    13    15 ar  
    24    13    26 1   
    25    14    16 ar  
    26    14    27 1   
    27    15    16 ar  
    28    22    28 1   
    29    23    28 1   
@<TRIPOS>SUBSTRUCTURE
     1 6DH         1 TEMP              0 ****  ****    0 ROOT
