@<TRIPOS>MOLECULE
6DJ
   37    38     1     0     0
SMALL
No Charge or Current Charge


@<TRIPOS>ATOM
      1 O2          -2.3380     2.7820     0.4390 oh         1 6DJ      -0.729000
      2 C2          -1.7490     1.4760     0.2400 c6         1 6DJ       0.101300
      3 C3          -2.7650     0.5500    -0.5150 c6         1 6DJ       0.136300
      4 O3          -3.1360     1.1670    -1.7610 oh         1 6DJ      -0.670000
      5 C1          -1.3220     0.8230     1.5940 c6         1 6DJ       0.185800
      6 N5          -0.7960    -0.5460     1.3390 nh         1 6DJ      -0.735600
      7 C5          -1.6820    -1.4830     0.5930 c5         1 6DJ       0.219500
      8 C4          -2.1910    -0.8840    -0.7680 c6         1 6DJ       0.150300
      9 O4          -1.1770    -0.8070    -1.7900 oh         1 6DJ      -0.710000
     10 S6           0.8810    -2.3330     0.3030 ss         1 6DJ      -0.355200
     11 C6          -0.8870    -2.8150     0.5210 c5         1 6DJ       0.059600
     12 C7           0.5440    -0.7350     1.0250 c2         1 6DJ       0.701100
     13 N8           1.4230     0.1710     1.2670 n2         1 6DJ      -0.668900
     14 C9           2.8570     0.0300     0.9750 c3         1 6DJ       0.137800
     15 C10          3.2310     0.9010    -0.2410 c3         1 6DJ      -0.090400
     16 C11          4.7290     0.8140    -0.6050 c3         1 6DJ      -0.073400
     17 C12          5.1060     1.6810    -1.8220 c3         1 6DJ      -0.088100
     18 H1          -1.6260     3.3790     0.7740 ho         1 6DJ       0.516000
     19 H2          -0.8440     1.5680    -0.3810 h1         1 6DJ       0.063700
     20 H3          -3.6570     0.4450     0.1210 h1         1 6DJ       0.049700
     21 H4          -3.2430     2.1210    -1.5360 ho         1 6DJ       0.469000
     22 H5          -0.5940     1.4560     2.1230 h1         1 6DJ       0.074700
     23 H6          -2.2110     0.7580     2.2400 h1         1 6DJ       0.074700
     24 H7          -2.5940    -1.6600     1.1810 h1         1 6DJ       0.079700
     25 H8          -3.0150    -1.5200    -1.1260 h1         1 6DJ       0.053700
     26 H9          -1.5080    -0.0990    -2.3930 ho         1 6DJ       0.524000
     27 H10         -0.9840    -3.3630     1.4670 h1         1 6DJ       0.081200
     28 H11         -1.2260    -3.4680    -0.2930 h1         1 6DJ       0.081200
     29 H12          3.4500     0.3520     1.8420 h1         1 6DJ       0.046200
     30 H13          3.1420    -1.0090     0.7660 h1         1 6DJ       0.046200
     31 H14          2.6320     0.5860    -1.1060 hc         1 6DJ       0.049200
     32 H15          2.9700     1.9450    -0.0310 hc         1 6DJ       0.049200
     33 H16          5.3310     1.1280     0.2570 hc         1 6DJ       0.036700
     34 H17          4.9920    -0.2300    -0.8160 hc         1 6DJ       0.036700
     35 H18          4.5450     1.3680    -2.7110 hc         1 6DJ       0.031700
     36 H19          4.8870     2.7380    -1.6280 hc         1 6DJ       0.031700
     37 H20          6.1760     1.5870    -2.0410 hc         1 6DJ       0.031700
@<TRIPOS>BOND
     1     1     2 1   
     2     1    18 1   
     3     2     3 1   
     4     2     5 1   
     5     2    19 1   
     6     3     4 1   
     7     3     8 1   
     8     3    20 1   
     9     4    21 1   
    10     5     6 1   
    11     5    22 1   
    12     5    23 1   
    13     6     7 1   
    14     6    12 1   
    15     7     8 1   
    16     7    11 1   
    17     7    24 1   
    18     8     9 1   
    19     8    25 1   
    20     9    26 1   
    21    10    11 1   
    22    10    12 1   
    23    11    27 1   
    24    11    28 1   
    25    12    13 2   
    26    13    14 1   
    27    14    15 1   
    28    14    29 1   
    29    14    30 1   
    30    15    16 1   
    31    15    31 1   
    32    15    32 1   
    33    16    17 1   
    34    16    33 1   
    35    16    34 1   
    36    17    35 1   
    37    17    36 1   
    38    17    37 1   
@<TRIPOS>SUBSTRUCTURE
     1 6DJ         1 TEMP              0 ****  ****    0 ROOT
