@<TRIPOS>MOLECULE
6DJ
   37    38     1     0     0
SMALL
bcc


@<TRIPOS>ATOM
      1 O2          -2.6790     2.6150     0.7530 oh         1 6DJ      -0.606800
      2 C2          -1.9010     1.4920     0.4000 c6         1 6DJ       0.078100
      3 C3          -2.7890     0.5670    -0.4220 c6         1 6DJ       0.113100
      4 O3          -3.2240     1.1740    -1.6150 oh         1 6DJ      -0.607800
      5 C1          -1.3910     0.7540     1.6380 c6         1 6DJ       0.185800
      6 N5          -0.7420    -0.4830     1.2670 nh         1 6DJ      -0.735600
      7 C5          -1.5400    -1.3910     0.4700 c5         1 6DJ       0.219500
      8 C4          -2.0450    -0.7130    -0.8000 c6         1 6DJ       0.127100
      9 O4          -0.9490    -0.4490    -1.6370 oh         1 6DJ      -0.587800
     10 S6           1.0460    -2.0470     0.2360 ss         1 6DJ      -0.307300
     11 C6          -0.6730    -2.6240     0.2220 c5         1 6DJ       0.011700
     12 C7           0.6070    -0.5110     1.0240 c2         1 6DJ       0.701100
     13 N8           1.4020     0.4100     1.3610 n2         1 6DJ      -0.668900
     14 C9           2.8120     0.2650     1.0930 c3         1 6DJ       0.137800
     15 C10          3.1950     0.8020    -0.2820 c3         1 6DJ      -0.090400
     16 C11          4.6900     0.6970    -0.5550 c3         1 6DJ      -0.073400
     17 C12          5.0800     1.2300    -1.9260 c3         1 6DJ      -0.088100
     18 H1          -2.0900     3.3420     0.9740 ho         1 6DJ       0.417000
     19 H2          -1.0370     1.7920    -0.2080 h1         1 6DJ       0.063700
     20 H3          -3.6490     0.2760     0.2040 h1         1 6DJ       0.049700
     21 H4          -3.5470     2.0560    -1.4030 ho         1 6DJ       0.430000
     22 H5          -0.6840     1.3720     2.1900 h1         1 6DJ       0.074700
     23 H6          -2.2280     0.5290     2.3060 h1         1 6DJ       0.074700
     24 H7          -2.4180    -1.6920     1.0490 h1         1 6DJ       0.079700
     25 H8          -2.7600    -1.3980    -1.2830 h1         1 6DJ       0.053700
     26 H9          -1.2520     0.1160    -2.3570 ho         1 6DJ       0.425000
     27 H10         -0.8110    -3.3600     1.0110 h1         1 6DJ       0.081200
     28 H11         -0.8920    -3.0950    -0.7350 h1         1 6DJ       0.081200
     29 H12          3.3650     0.8200     1.8560 h1         1 6DJ       0.046200
     30 H13          3.1500    -0.7790     1.1800 h1         1 6DJ       0.046200
     31 H14          2.6400     0.2540    -1.0500 hc         1 6DJ       0.049200
     32 H15          2.8780     1.8470    -0.3590 hc         1 6DJ       0.049200
     33 H16          5.2390     1.2430     0.2180 hc         1 6DJ       0.036700
     34 H17          5.0040    -0.3480    -0.4670 hc         1 6DJ       0.036700
     35 H18          4.5680     0.6890    -2.7230 hc         1 6DJ       0.031700
     36 H19          4.8220     2.2860    -2.0270 hc         1 6DJ       0.031700
     37 H20          6.1530     1.1370    -2.1000 hc         1 6DJ       0.031700
@<TRIPOS>BOND
     1     1     2 1   
     2     1    18 1   
     3     2     3 1   
     4     2     5 1   
     5     2    19 1   
     6     3     4 1   
     7     3     8 1   
     8     3    20 1   
     9     4    21 1   
    10     5     6 1   
    11     5    22 1   
    12     5    23 1   
    13     6     7 1   
    14     6    12 1   
    15     7     8 1   
    16     7    11 1   
    17     7    24 1   
    18     8     9 1   
    19     8    25 1   
    20     9    26 1   
    21    10    11 1   
    22    10    12 1   
    23    11    27 1   
    24    11    28 1   
    25    12    13 2   
    26    13    14 1   
    27    14    15 1   
    28    14    29 1   
    29    14    30 1   
    30    15    16 1   
    31    15    31 1   
    32    15    32 1   
    33    16    17 1   
    34    16    33 1   
    35    16    34 1   
    36    17    35 1   
    37    17    36 1   
    38    17    37 1   
@<TRIPOS>SUBSTRUCTURE
     1 6DJ         1 TEMP              0 ****  ****    0 ROOT
