@<TRIPOS>MOLECULE
6DK
   42    42     1     0     0
SMALL
No Charge or Current Charge


@<TRIPOS>ATOM
      1 N          -21.3700     4.0000    -1.2630 ns         1 6DK      -0.151000
      2 C1         -19.5430     6.1330     8.1730 c3         1 6DK       0.370000
      3 O1         -19.0430     7.3960     7.7460 oh         1 6DK      -0.653500
      4 C2         -19.5980     5.1720     6.9460 c3         1 6DK      -0.054400
      5 O2         -20.8700     6.3880     8.6190 oh         1 6DK      -0.653500
      6 C3         -20.4450     5.6600     5.7380 c3         1 6DK      -0.067400
      7 C4         -20.4530     4.6570     4.5630 c3         1 6DK      -0.076400
      8 C5         -21.2940     5.1400     3.3610 c3         1 6DK      -0.076400
      9 C6         -21.3020     4.1370     2.1870 c3         1 6DK      -0.065400
     10 C7         -22.1450     4.6230     0.9840 c3         1 6DK      -0.159400
     11 C8         -22.1290     3.6070    -0.1680 c          1 6DK       0.607100
     12 C9         -21.0870     3.3750    -2.5090 ca         1 6DK      -0.018000
     13 C10        -21.5050     2.0660    -2.8420 ca         1 6DK      -0.151500
     14 C11        -21.1830     1.5140    -4.0940 ca         1 6DK      -0.083000
     15 C12        -20.4400     2.2580    -5.0240 ca         1 6DK      -0.138000
     16 C13        -20.0170     3.5570    -4.7020 ca         1 6DK      -0.083000
     17 C14        -20.3390     4.1090    -3.4500 ca         1 6DK      -0.151500
     18 F2         -19.1460     4.3680     9.7970 f          1 6DK      -0.112000
     19 C          -18.6590     5.5510     9.3490 c3         1 6DK       0.223000
     20 F          -17.3800     5.3430     8.9530 f          1 6DK      -0.112000
     21 F1         -18.6240     6.4010    10.4030 f          1 6DK      -0.112000
     22 O          -22.7700     2.5630    -0.1060 o          1 6DK      -0.577100
     23 H1         -20.9270     4.9030    -1.1530 hn         1 6DK       0.147000
     24 H2         -18.6380     7.8200     8.5310 ho         1 6DK       0.461000
     25 H3         -19.9920     4.2030     7.2760 hc         1 6DK       0.068700
     26 H4         -18.5750     4.9850     6.5990 hc         1 6DK       0.068700
     27 H5         -20.8090     6.6210     9.5690 ho         1 6DK       0.461000
     28 H6         -20.0550     6.6220     5.3820 hc         1 6DK       0.054200
     29 H7         -21.4780     5.8360     6.0620 hc         1 6DK       0.054200
     30 H8         -20.8460     3.6940     4.9140 hc         1 6DK       0.041200
     31 H9         -19.4210     4.4800     4.2330 hc         1 6DK       0.041200
     32 H10        -20.9010     6.1020     3.0100 hc         1 6DK       0.037700
     33 H11        -22.3260     5.3160     3.6910 hc         1 6DK       0.037700
     34 H12        -21.6940     3.1730     2.5390 hc         1 6DK       0.056700
     35 H13        -20.2700     3.9590     1.8570 hc         1 6DK       0.056700
     36 H14        -21.7390     5.5830     0.6410 hc         1 6DK       0.057700
     37 H15        -23.1810     4.7570     1.3170 hc         1 6DK       0.057700
     38 H16        -22.0740     1.4590    -2.1460 ha         1 6DK       0.126500
     39 H17        -21.5090     0.5050    -4.3420 ha         1 6DK       0.112500
     40 H18        -20.1920     1.8280    -5.9920 ha         1 6DK       0.115000
     41 H19        -19.4400     4.1350    -5.4200 ha         1 6DK       0.112500
     42 H20        -20.0040     5.1170    -3.2120 ha         1 6DK       0.126500
@<TRIPOS>BOND
     1     1    11 1   
     2     1    12 1   
     3     1    23 1   
     4     2     3 1   
     5     2     4 1   
     6     2     5 1   
     7     2    19 1   
     8     3    24 1   
     9     4     6 1   
    10     4    25 1   
    11     4    26 1   
    12     5    27 1   
    13     6     7 1   
    14     6    28 1   
    15     6    29 1   
    16     7     8 1   
    17     7    30 1   
    18     7    31 1   
    19     8     9 1   
    20     8    32 1   
    21     8    33 1   
    22     9    10 1   
    23     9    34 1   
    24     9    35 1   
    25    10    11 1   
    26    10    36 1   
    27    10    37 1   
    28    11    22 2   
    29    12    13 ar  
    30    12    17 ar  
    31    13    14 ar  
    32    13    38 1   
    33    14    15 ar  
    34    14    39 1   
    35    15    16 ar  
    36    15    40 1   
    37    16    17 ar  
    38    16    41 1   
    39    17    42 1   
    40    18    19 1   
    41    19    20 1   
    42    19    21 1   
@<TRIPOS>SUBSTRUCTURE
     1 6DK         1 TEMP              0 ****  ****    0 ROOT
