@<TRIPOS>MOLECULE
6DK
   42    42     1     0     0
SMALL
bcc


@<TRIPOS>ATOM
      1 N          -21.1200     4.0330    -1.4030 ns         1 6DK      -0.477100
      2 C1         -19.7870     6.1710     8.2550 c3         1 6DK       0.323600
      3 O1         -18.8260     7.1100     7.8970 oh         1 6DK      -0.591300
      4 C2         -19.8280     5.1100     7.1580 c3         1 6DK      -0.054400
      5 O2         -21.0660     6.6990     8.3850 oh         1 6DK      -0.591300
      6 C3         -20.2550     5.6510     5.7980 c3         1 6DK      -0.067400
      7 C4         -20.2360     4.5610     4.7320 c3         1 6DK      -0.076400
      8 C5         -20.6890     5.0660     3.3690 c3         1 6DK      -0.076400
      9 C6         -20.6660     3.9870     2.2940 c3         1 6DK      -0.065400
     10 C7         -21.1280     4.5240     0.9490 c3         1 6DK      -0.159400
     11 C8         -21.1350     3.4890    -0.1570 c          1 6DK       0.674100
     12 C9         -21.1830     3.4100    -2.6530 ca         1 6DK       0.074600
     13 C10        -21.3450     2.0370    -2.8470 ca         1 6DK      -0.169500
     14 C11        -21.4030     1.5280    -4.1390 ca         1 6DK      -0.101000
     15 C12        -21.3030     2.3560    -5.2470 ca         1 6DK      -0.156000
     16 C13        -21.1420     3.7220    -5.0520 ca         1 6DK      -0.101000
     17 C14        -21.0830     4.2440    -3.7720 ca         1 6DK      -0.169500
     18 F2         -20.2430     4.6040    10.0050 f          1 6DK      -0.233300
     19 C          -19.3780     5.5390     9.6060 c3         1 6DK       0.586900
     20 F          -18.1710     4.9730     9.5520 f          1 6DK      -0.233300
     21 F1         -19.3320     6.4690    10.5760 f          1 6DK      -0.233300
     22 O          -21.1720     2.2920     0.0600 o          1 6DK      -0.577100
     23 H1         -21.0650     5.0400    -1.4410 hn         1 6DK       0.313500
     24 H2         -18.7610     7.8240     8.5440 ho         1 6DK       0.422000
     25 H3         -20.5120     4.3120     7.4560 hc         1 6DK       0.068700
     26 H4         -18.8380     4.6550     7.0720 hc         1 6DK       0.068700
     27 H5         -21.0950     7.4140     9.0330 ho         1 6DK       0.422000
     28 H6         -19.5930     6.4640     5.4890 hc         1 6DK       0.054200
     29 H7         -21.2600     6.0730     5.8610 hc         1 6DK       0.054200
     30 H8         -20.8800     3.7320     5.0440 hc         1 6DK       0.041200
     31 H9         -19.2260     4.1470     4.6510 hc         1 6DK       0.041200
     32 H10        -20.0510     5.9020     3.0610 hc         1 6DK       0.037700
     33 H11        -21.7020     5.4740     3.4520 hc         1 6DK       0.037700
     34 H12        -21.3040     3.1550     2.6020 hc         1 6DK       0.056700
     35 H13        -19.6540     3.5840     2.2030 hc         1 6DK       0.056700
     36 H14        -20.5090     5.3760     0.6520 hc         1 6DK       0.057700
     37 H15        -22.1480     4.9150     1.0340 hc         1 6DK       0.057700
     38 H16        -21.4260     1.3650    -2.0100 ha         1 6DK       0.144500
     39 H17        -21.5280     0.4610    -4.2710 ha         1 6DK       0.130500
     40 H18        -21.3500     1.9450    -6.2470 ha         1 6DK       0.133000
     41 H19        -21.0600     4.3900    -5.8990 ha         1 6DK       0.130500
     42 H20        -20.9590     5.3120    -3.6360 ha         1 6DK       0.144500
@<TRIPOS>BOND
     1     1    11 1   
     2     1    12 1   
     3     1    23 1   
     4     2     3 1   
     5     2     4 1   
     6     2     5 1   
     7     2    19 1   
     8     3    24 1   
     9     4     6 1   
    10     4    25 1   
    11     4    26 1   
    12     5    27 1   
    13     6     7 1   
    14     6    28 1   
    15     6    29 1   
    16     7     8 1   
    17     7    30 1   
    18     7    31 1   
    19     8     9 1   
    20     8    32 1   
    21     8    33 1   
    22     9    10 1   
    23     9    34 1   
    24     9    35 1   
    25    10    11 1   
    26    10    36 1   
    27    10    37 1   
    28    11    22 2   
    29    12    13 ar  
    30    12    17 ar  
    31    13    14 ar  
    32    13    38 1   
    33    14    15 ar  
    34    14    39 1   
    35    15    16 ar  
    36    15    40 1   
    37    16    17 ar  
    38    16    41 1   
    39    17    42 1   
    40    18    19 1   
    41    19    20 1   
    42    19    21 1   
@<TRIPOS>SUBSTRUCTURE
     1 6DK         1 TEMP              0 ****  ****    0 ROOT
