@<TRIPOS>MOLECULE
6DL
   31    33     1     0     0
SMALL
No Charge or Current Charge


@<TRIPOS>ATOM
      1 C1           1.5250    12.0840    27.4580 ca         1 6DL       0.227100
      2 C2           2.8040    11.6550    27.0860 ca         1 6DL      -0.324000
      3 C3           2.9670    10.7920    25.9920 ca         1 6DL       0.234100
      4 C9           1.9900     9.4600    24.0990 cc         1 6DL       0.439500
      5 C12          1.4580     7.8900    22.5670 c          1 6DL       0.573000
      6 C14          0.2320     7.7580    24.7660 ca         1 6DL       0.010600
      7 C15         -1.0820     7.3810    24.3930 ca         1 6DL       0.190000
      8 C16         -1.9740     6.8520    25.3410 ca         1 6DL      -0.146000
      9 C19          0.5940     7.6630    26.1290 ca         1 6DL      -0.077000
     10 C4           1.8480    10.3390    25.2640 ca         1 6DL      -0.200900
     11 C5           0.5640    10.7930    25.6350 ca         1 6DL       0.021000
     12 C6           0.4010    11.6540    26.7320 ca         1 6DL      -0.109900
     13 O7           1.3850    12.9190    28.5240 oh         1 6DL      -0.504100
     14 O8           4.2220    10.3690    25.6840 oh         1 6DL      -0.506100
     15 N10          2.8240     9.6770    23.0810 nd         1 6DL      -0.456300
     16 N11          2.4720     8.7090    22.1850 ns         1 6DL      -0.372400
     17 N13          1.1170     8.3990    23.8190 n          1 6DL      -0.251500
     18 C17         -1.5820     6.7180    26.6820 ca         1 6DL      -0.075000
     19 C18         -0.3000     7.1310    27.0750 ca         1 6DL      -0.121000
     20 O20          1.0200     6.9180    21.9730 o          1 6DL      -0.543000
     21 F21         -1.5260     7.5710    23.1300 f          1 6DL      -0.161000
     22 Br          -1.3670    12.2280    27.2100 br         1 6DL      -0.062100
     23 H1           3.6720    11.9860    27.6500 ha         1 6DL       0.120000
     24 H2          -2.9770     6.5640    25.0360 ha         1 6DL       0.138000
     25 H3           1.5830     7.9710    26.4590 ha         1 6DL       0.129000
     26 H4          -0.3130    10.4830    25.0710 ha         1 6DL       0.144000
     27 H5           2.2770    13.0990    28.8860 ho         1 6DL       0.474000
     28 H6           4.8470    10.8030    26.3010 ho         1 6DL       0.472000
     29 H7           2.9310     8.5670    21.2820 hn         1 6DL       0.493000
     30 H8          -2.2750     6.3110    27.4170 ha         1 6DL       0.121000
     31 H9           0.0020     7.0440    28.1170 ha         1 6DL       0.123000
@<TRIPOS>BOND
     1     1     2 ar  
     2     1    12 ar  
     3     1    13 1   
     4     2     3 ar  
     5     2    23 1   
     6     3    10 ar  
     7     3    14 1   
     8     4    10 1   
     9     4    15 2   
    10     4    17 1   
    11     5    16 1   
    12     5    17 1   
    13     5    20 2   
    14     6     7 ar  
    15     6     9 ar  
    16     6    17 1   
    17     7     8 ar  
    18     7    21 1   
    19     8    18 ar  
    20     8    24 1   
    21     9    19 ar  
    22     9    25 1   
    23    10    11 ar  
    24    11    12 ar  
    25    11    26 1   
    26    12    22 1   
    27    13    27 1   
    28    14    28 1   
    29    15    16 1   
    30    16    29 1   
    31    18    19 ar  
    32    18    30 1   
    33    19    31 1   
@<TRIPOS>SUBSTRUCTURE
     1 6DL         1 TEMP              0 ****  ****    0 ROOT
