@<TRIPOS>MOLECULE
6DL
   31    33     1     0     0
SMALL
abcg2


@<TRIPOS>ATOM
      1 C1           1.4440    12.1280    27.4010 ca         1 6DL       0.227100
      2 C2           2.7040    11.6530    27.0590 ca         1 6DL      -0.324000
      3 C3           2.8790    10.8100    25.9680 ca         1 6DL       0.234100
      4 C9           1.9160     9.5320    24.0540 cc         1 6DL       0.439500
      5 C12          1.5440     7.7710    22.7200 c          1 6DL       0.573000
      6 C14          0.2940     7.8040    24.8490 ca         1 6DL       0.010600
      7 C15         -1.0520     7.6820    24.5420 ca         1 6DL       0.190000
      8 C16         -1.9510     7.1270    25.4300 ca         1 6DL      -0.146000
      9 C19          0.7480     7.3630    26.0850 ca         1 6DL      -0.077000
     10 C4           1.7750    10.4320    25.1950 ca         1 6DL      -0.200900
     11 C5           0.5160    10.9100    25.5460 ca         1 6DL       0.021000
     12 C6           0.3430    11.7460    26.6300 ca         1 6DL      -0.109900
     13 O7           1.2400    12.9370    28.4420 oh         1 6DL      -0.504100
     14 O8           4.0790    10.3270    25.6310 oh         1 6DL      -0.506100
     15 N10          2.6990     9.6980    23.0460 nd         1 6DL      -0.456300
     16 N11          2.4750     8.6310    22.2420 ns         1 6DL      -0.372400
     17 N13          1.1770     8.3770    23.9140 n          1 6DL      -0.251500
     18 C17         -1.4860     6.6950    26.6640 ca         1 6DL      -0.075000
     19 C18         -0.1430     6.8160    26.9950 ca         1 6DL      -0.121000
     20 O20          1.1270     6.7270    22.2590 o          1 6DL      -0.543000
     21 F21         -1.4800     8.1340    23.3600 f          1 6DL      -0.161000
     22 BR          -1.3690    12.3820    27.0780 br         1 6DL      -0.062100
     23 H1           3.5620    11.9380    27.6610 ha         1 6DL       0.120000
     24 H2          -2.9950     7.0420    25.1610 ha         1 6DL       0.138000
     25 H3           1.7990     7.4520    26.3270 ha         1 6DL       0.129000
     26 H4          -0.3410    10.6330    24.9450 ha         1 6DL       0.144000
     27 H5           2.0710    13.1320    28.8930 ho         1 6DL       0.474000
     28 H6           4.7560    10.6290    26.2490 ho         1 6DL       0.472000
     29 H7           2.9760     8.5390    21.3720 hn         1 6DL       0.493000
     30 H8          -2.1820     6.2630    27.3700 ha         1 6DL       0.121000
     31 H9           0.2130     6.4770    27.9570 ha         1 6DL       0.123000
@<TRIPOS>BOND
     1     1     2 ar  
     2     1    12 ar  
     3     1    13 1   
     4     2     3 ar  
     5     2    23 1   
     6     3    10 ar  
     7     3    14 1   
     8     4    10 1   
     9     4    15 2   
    10     4    17 1   
    11     5    16 1   
    12     5    17 1   
    13     5    20 2   
    14     6     7 ar  
    15     6     9 ar  
    16     6    17 1   
    17     7     8 ar  
    18     7    21 1   
    19     8    18 ar  
    20     8    24 1   
    21     9    19 ar  
    22     9    25 1   
    23    10    11 ar  
    24    11    12 ar  
    25    11    26 1   
    26    12    22 1   
    27    13    27 1   
    28    14    28 1   
    29    15    16 1   
    30    16    29 1   
    31    18    19 ar  
    32    18    30 1   
    33    19    31 1   
@<TRIPOS>SUBSTRUCTURE
     1 6DL         1 TEMP              0 ****  ****    0 ROOT
