@<TRIPOS>MOLECULE
6DN
   28    27     1     0     0
SMALL
No Charge or Current Charge


@<TRIPOS>ATOM
      1 O1         -10.1970   -29.1940     1.1100 o          1 6DN      -0.748000
      2 O2         -12.3320   -29.2210     0.8270 o          1 6DN      -0.748000
      3 CB         -14.6020   -23.0980     3.9320 c3         1 6DN      -0.050400
      4 CA         -14.8750   -21.6520     4.4320 c3         1 6DN       0.014500
      5 C          -16.3130   -21.5650     5.0960 c          1 6DN       0.691000
      6 O          -16.4620   -22.0110     6.2270 o          1 6DN      -0.744500
      7 N          -13.7290   -21.1420     5.2720 n8         1 6DN      -0.994200
      8 CG         -13.3970   -23.2300     2.9670 c3         1 6DN      -0.070400
      9 CD         -13.1980   -24.6690     2.4400 c3         1 6DN      -0.118400
     10 CE         -11.9940   -24.7910     1.4780 c3         1 6DN       0.165800
     11 NZ         -11.8810   -26.1510     0.9140 n7         1 6DN      -0.865400
     12 CX1        -11.4090   -27.2350     1.8440 c3         1 6DN       0.022800
     13 CX2        -11.3030   -28.6770     1.2130 c          1 6DN       0.718000
     14 OXT        -17.1900   -20.9530     4.5020 o          1 6DN      -0.744500
     15 HB2        -15.4990   -23.4560     3.4110 hc         1 6DN       0.037200
     16 HB3        -14.4580   -23.7620     4.7930 hc         1 6DN       0.037200
     17 HA         -14.9140   -21.0090     3.5420 h1         1 6DN       0.031700
     18 H          -13.9200   -20.1700     5.5410 hn         1 6DN       0.374500
     19 H2         -13.7440   -21.6400     6.1700 hn         1 6DN       0.374500
     20 HG2        -12.4810   -22.9100     3.4770 hc         1 6DN       0.028200
     21 HG3        -13.5430   -22.5530     2.1160 hc         1 6DN       0.028200
     22 HD2        -14.1110   -24.9900     1.9210 hc         1 6DN       0.035200
     23 HD3        -13.0590   -25.3400     3.2960 hc         1 6DN       0.035200
     24 HE2        -11.0710   -24.5140     2.0060 h1         1 6DN       0.022200
     25 HE3        -12.1330   -24.0700     0.6610 h1         1 6DN       0.022200
     26 HZ1        -12.7980   -26.4240     0.5340 hn         1 6DN       0.424000
     27 H16        -10.4220   -26.9690     2.2470 h1         1 6DN       0.009700
     28 H17        -12.0900   -27.3170     2.7010 h1         1 6DN       0.009700
@<TRIPOS>BOND
     1     1    13 1   
     2     2    13 1   
     3     3     4 1   
     4     3     8 1   
     5     3    15 1   
     6     3    16 1   
     7     4     5 1   
     8     4     7 1   
     9     4    17 1   
    10     5     6 1   
    11     5    14 1   
    12     7    18 1   
    13     7    19 1   
    14     8     9 1   
    15     8    20 1   
    16     8    21 1   
    17     9    10 1   
    18     9    22 1   
    19     9    23 1   
    20    10    11 1   
    21    10    24 1   
    22    10    25 1   
    23    11    12 1   
    24    11    26 1   
    25    12    13 1   
    26    12    27 1   
    27    12    28 1   
@<TRIPOS>SUBSTRUCTURE
     1 6DN         1 TEMP              0 ****  ****    0 ROOT
