@<TRIPOS>MOLECULE
6DN
   28    27     1     0     0
SMALL
bcc


@<TRIPOS>ATOM
      1 O1         -10.6860   -29.3550     1.9460 o          1 6DN      -0.853300
      2 O2         -12.0480   -28.7600     0.2840 o          1 6DN      -0.853300
      3 CB         -14.6440   -23.1070     3.8780 c3         1 6DN      -0.050400
      4 CA         -14.8130   -21.6930     4.4420 c3         1 6DN       0.014500
      5 C          -16.1790   -21.5950     5.1630 c          1 6DN       0.901600
      6 O          -16.1730   -21.5570     6.4100 o          1 6DN      -0.849800
      7 N          -13.6580   -21.3370     5.2550 n8         1 6DN      -0.883800
      8 CG         -13.4430   -23.2640     2.9550 c3         1 6DN      -0.070400
      9 CD         -13.2690   -24.6850     2.4330 c3         1 6DN      -0.118400
     10 CE         -12.1100   -24.8020     1.4420 c3         1 6DN       0.165800
     11 NZ         -11.8450   -26.1180     0.8960 n7         1 6DN      -0.810200
     12 CX1        -11.3780   -27.0950     1.8550 c3         1 6DN       0.022800
     13 CX2        -11.3610   -28.5300     1.2990 c          1 6DN       0.928600
     14 OXT        -17.1890   -21.5920     4.4280 o          1 6DN      -0.849800
     15 HB2        -15.5540   -23.3780     3.3360 hc         1 6DN       0.037200
     16 HB3        -14.5620   -23.8170     4.7110 hc         1 6DN       0.037200
     17 HA         -14.8380   -21.0040     3.5890 h1         1 6DN       0.031700
     18 H          -13.6940   -20.3450     5.4530 hn         1 6DN       0.319300
     19 H2         -13.7790   -21.7760     6.1620 hn         1 6DN       0.319300
     20 HG2        -12.5390   -22.9530     3.4850 hc         1 6DN       0.028200
     21 HG3        -13.5510   -22.5750     2.1090 hc         1 6DN       0.028200
     22 HD2        -14.1910   -25.0130     1.9410 hc         1 6DN       0.035200
     23 HD3        -13.1150   -25.3630     3.2780 hc         1 6DN       0.035200
     24 HE2        -11.1910   -24.4430     1.9200 h1         1 6DN       0.022200
     25 HE3        -12.2990   -24.1190     0.6080 h1         1 6DN       0.022200
     26 HZ1        -12.6670   -26.4840     0.4340 hn         1 6DN       0.368800
     27 H16        -10.3680   -26.8240     2.1800 h1         1 6DN       0.009700
     28 H17        -11.9810   -27.1300     2.7790 h1         1 6DN       0.009700
@<TRIPOS>BOND
     1     1    13 1   
     2     2    13 1   
     3     3     4 1   
     4     3     8 1   
     5     3    15 1   
     6     3    16 1   
     7     4     5 1   
     8     4     7 1   
     9     4    17 1   
    10     5     6 1   
    11     5    14 1   
    12     7    18 1   
    13     7    19 1   
    14     8     9 1   
    15     8    20 1   
    16     8    21 1   
    17     9    10 1   
    18     9    22 1   
    19     9    23 1   
    20    10    11 1   
    21    10    24 1   
    22    10    25 1   
    23    11    12 1   
    24    11    26 1   
    25    12    13 1   
    26    12    27 1   
    27    12    28 1   
@<TRIPOS>SUBSTRUCTURE
     1 6DN         1 TEMP              0 ****  ****    0 ROOT
