@<TRIPOS>MOLECULE
6DO
  116   117     1     0     0
SMALL
bcc


@<TRIPOS>ATOM
      1 C10          4.6850    56.2780    13.8000 c3         1 6DO      -0.043300
      2 C13          2.1760    52.2580    13.5280 c3         1 6DO       0.143100
      3 C15          0.5410    54.1220    13.0390 c3         1 6DO      -0.075100
      4 C17          5.1950    50.6140    12.1220 c5         1 6DO      -0.096400
      5 C20          0.5320    50.5410    13.3820 c3         1 6DO       0.129700
      6 C21          3.8280    48.6410    15.6570 c3         1 6DO      -0.158400
      7 C22          1.9310    44.9840    16.2360 c          1 6DO       0.663100
      8 N01          1.5680    42.6390    15.7800 ns         1 6DO      -0.564900
      9 C02          1.8930    43.8980    15.1520 c3         1 6DO       0.037700
     10 C03          5.7160    54.2830    15.9480 ca         1 6DO      -0.131000
     11 C05          7.0040    53.4320    14.1240 ca         1 6DO      -0.131000
     12 C06          7.1700    52.2270    14.7980 ca         1 6DO      -0.132000
     13 C07          6.5900    52.0420    16.0430 ca         1 6DO      -0.155000
     14 C08          5.8600    53.0760    16.6150 ca         1 6DO      -0.132000
     15 C09          6.1320    55.7850    13.9590 c3         1 6DO      -0.038100
     16 C11          2.8280    54.6520    13.8590 c          1 6DO       0.659100
     17 C12          2.0070    53.6940    13.0080 c3         1 6DO      -0.149700
     18 C14          3.6460    51.8240    13.5390 c5         1 6DO       0.095700
     19 C16          4.2900    51.8390    12.1470 c5         1 6DO      -0.086400
     20 C18          4.4390    49.6060    12.9730 c5         1 6DO       0.108000
     21 O23          0.9430    45.1100    16.9480 o          1 6DO      -0.627100
     22 N24          3.8370    55.2640    13.2230 ns         1 6DO      -0.523900
     23 N25          3.8120    50.4400    13.9920 n          1 6DO      -0.467800
     24 O26          1.4230    51.3930    12.7060 os         1 6DO      -0.422600
     25 O27          2.5540    54.8320    15.0400 o          1 6DO      -0.638100
     26 O28          3.2200    50.9040    16.1100 o          1 6DO      -0.606100
     27 C29          0.8550    44.2520    14.0750 c3         1 6DO      -0.065700
     28 C30          2.7970    48.1890    16.6760 c3         1 6DO       0.143100
     29 C31          3.0680    46.8240    17.3360 c3         1 6DO       0.079700
     30 C33          4.3180    46.7910    18.2340 c3         1 6DO      -0.063700
     31 C34          4.2800    47.9050    19.2810 c3         1 6DO      -0.093100
     32 C35          4.5040    45.4200    18.9000 c3         1 6DO      -0.073400
     33 C36          3.4050    45.0150    19.8740 c3         1 6DO      -0.093100
     34 C39          1.9300    40.5800    16.9980 c3         1 6DO       0.102500
     35 C41          1.9500    40.7770    18.5280 c3         1 6DO      -0.052700
     36 C42          0.9900    41.8770    18.9680 c3         1 6DO      -0.091600
     37 C43          3.3440    41.0000    19.1020 c3         1 6DO      -0.091600
     38 N44          3.0440    45.7360    16.3580 n          1 6DO      -0.450800
     39 N45          2.6890    39.4090    16.6290 n7         1 6DO      -0.786200
     40 O46          1.5610    48.1740    15.9960 os         1 6DO      -0.412600
     41 O47          3.6960    41.9910    16.1530 o          1 6DO      -0.591100
     42 C48          1.1610    45.6070    13.4410 c3         1 6DO      -0.092100
     43 C49          0.8060    43.1690    13.0030 c3         1 6DO      -0.092100
     44 C50          4.6900    57.5690    12.9430 c          1 6DO       0.924600
     45 O51          5.2370    58.5540    13.4730 o          1 6DO      -0.827300
     46 O52          4.1860    57.5050    11.8070 o          1 6DO      -0.827300
     47 C40          2.4660    38.9830    15.2620 c3         1 6DO       0.143100
     48 C19          3.5920    50.0930    15.2720 c          1 6DO       0.675100
     49 C32          0.4460    48.4420    16.8060 c3         1 6DO       0.120700
     50 C37          4.2210    45.4830    15.5380 c3         1 6DO       0.080300
     51 C04          6.2770    54.4770    14.6870 ca         1 6DO      -0.051300
     52 H101         4.2820    56.5190    14.7850 h1         1 6DO       0.070700
     53 H131         1.8020    52.2300    14.5560 h1         1 6DO       0.081700
     54 H151         0.4230    55.1470    12.6850 hc         1 6DO       0.038033
     55 H152        -0.0610    53.4820    12.3970 hc         1 6DO       0.038033
     56 H153         0.1390    54.0680    14.0510 hc         1 6DO       0.038033
     57 H171         5.3880    50.2440    11.1160 hc         1 6DO       0.048700
     58 H172         6.1540    50.8400    12.5890 hc         1 6DO       0.048700
     59 H203        -0.0430    50.0020    12.6270 h1         1 6DO       0.024700
     60 H202         1.0420    49.8060    14.0110 h1         1 6DO       0.024700
     61 H201        -0.1730    51.0960    14.0120 h1         1 6DO       0.024700
     62 H212         3.7890    47.9850    14.7880 hc         1 6DO       0.062200
     63 H211         4.8430    48.5680    16.0620 hc         1 6DO       0.062200
     64 H021         2.8540    43.7730    14.6560 h1         1 6DO       0.085700
     65 H031         5.1450    55.0790    16.4100 ha         1 6DO       0.134500
     66 H051         7.4500    53.5630    13.1440 ha         1 6DO       0.134500
     67 H061         7.7450    51.4310    14.3420 ha         1 6DO       0.116500
     68 H071         6.6990    51.0990    16.5630 ha         1 6DO       0.109000
     69 H081         5.4000    52.9390    17.5850 ha         1 6DO       0.116500
     70 H092         6.6930    56.5650    14.4790 hc         1 6DO       0.056700
     71 H091         6.5870    55.6890    12.9680 hc         1 6DO       0.056700
     72 H121         2.3550    53.7330    11.9700 hc         1 6DO       0.058700
     73 H141         4.1990    52.4780    14.2190 h1         1 6DO       0.098700
     74 H162         4.8350    52.7670    11.9790 hc         1 6DO       0.063700
     75 H161         3.5320    51.7510    11.3670 hc         1 6DO       0.063700
     76 H182         3.6860    49.0730    12.3830 h1         1 6DO       0.036700
     77 H181         5.1080    48.8690    13.4110 h1         1 6DO       0.036700
     78 H241         3.8940    55.1630    12.2220 hn         1 6DO       0.317500
     79 H291        -0.1260    44.3110    14.5610 hc         1 6DO       0.061700
     80 H301         2.7590    48.9340    17.4790 h1         1 6DO       0.071700
     81 H311         2.2180    46.6480    17.9960 h1         1 6DO       0.085700
     82 H331         5.2130    46.9640    17.6270 hc         1 6DO       0.043700
     83 H342         5.0820    47.7610    20.0060 hc         1 6DO       0.039700
     84 H343         4.4220    48.8930    18.8430 hc         1 6DO       0.039700
     85 H341         3.3370    47.9220    19.8300 hc         1 6DO       0.039700
     86 H351         4.6070    44.6450    18.1350 hc         1 6DO       0.041200
     87 H352         5.4600    45.4410    19.4310 hc         1 6DO       0.041200
     88 H361         3.6300    44.0480    20.3250 hc         1 6DO       0.033700
     89 H363         3.2940    45.7350    20.6870 hc         1 6DO       0.033700
     90 H362         2.4380    44.9180    19.3810 hc         1 6DO       0.033700
     91 H391         0.8670    40.4740    16.7120 h1         1 6DO       0.017700
     92 H411         1.5680    39.8320    18.9350 hc         1 6DO       0.034700
     93 H421         0.9380    41.9190    20.0570 hc         1 6DO       0.041867
     94 H423         1.3060    42.8610    18.6200 hc         1 6DO       0.041867
     95 H422        -0.0210    41.7010    18.5960 hc         1 6DO       0.041867
     96 H432         3.3090    40.9520    20.1920 hc         1 6DO       0.041867
     97 H431         4.0480    40.2440    18.7550 hc         1 6DO       0.041867
     98 H433         3.7410    41.9790    18.8290 hc         1 6DO       0.041867
     99 H452         2.4360    38.6550    17.2540 hn         1 6DO       0.355800
    100 H482         1.1620    46.4240    14.1620 hc         1 6DO       0.039533
    101 H481         2.1360    45.5950    12.9460 hc         1 6DO       0.039533
    102 H483         0.4160    45.8400    12.6790 hc         1 6DO       0.039533
    103 H493         0.5670    42.1870    13.4120 hc         1 6DO       0.039533
    104 H491         0.0480    43.4080    12.2560 hc         1 6DO       0.039533
    105 H492         1.7660    43.0920    12.4860 hc         1 6DO       0.039533
    106 H403         2.9730    38.0340    15.0880 h1         1 6DO       0.031700
    107 H401         1.4060    38.8520    15.0030 h1         1 6DO       0.031700
    108 H402         2.8890    39.7060    14.5610 h1         1 6DO       0.031700
    109 H321        -0.4380    48.4060    16.1710 h1         1 6DO       0.033367
    110 H323         0.3190    47.7060    17.6060 h1         1 6DO       0.033367
    111 H322         0.5080    49.4380    17.2580 h1         1 6DO       0.033367
    112 H371         5.0360    46.1210    15.8600 h1         1 6DO       0.044367
    113 H372         4.5630    44.4550    15.6410 h1         1 6DO       0.044367
    114 H373         4.0450    45.6920    14.4820 h1         1 6DO       0.044367
    115 C38          2.4950    41.7990    16.2730 c          1 6DO       0.671100
    116 H011         0.5960    42.4500    15.9700 hn         1 6DO       0.319500
@<TRIPOS>BOND
     1     1    15 1   
     2     1    22 1   
     3     1    44 1   
     4     1    52 1   
     5     2    17 1   
     6     2    18 1   
     7     2    24 1   
     8     2    53 1   
     9     3    17 1   
    10     3    54 1   
    11     3    55 1   
    12     3    56 1   
    13     4    19 1   
    14     4    20 1   
    15     4    57 1   
    16     4    58 1   
    17     5    24 1   
    18     5    59 1   
    19     5    60 1   
    20     5    61 1   
    21     6    28 1   
    22     6    48 1   
    23     6    62 1   
    24     6    63 1   
    25     7     9 1   
    26     7    21 2   
    27     7    38 1   
    28     8     9 1   
    29     8   115 1   
    30     8   116 1   
    31     9    27 1   
    32     9    64 1   
    33    10    14 ar  
    34    10    51 ar  
    35    10    65 1   
    36    11    12 ar  
    37    11    51 ar  
    38    11    66 1   
    39    12    13 ar  
    40    12    67 1   
    41    13    14 ar  
    42    13    68 1   
    43    14    69 1   
    44    15    51 1   
    45    15    70 1   
    46    15    71 1   
    47    16    17 1   
    48    16    22 1   
    49    16    25 2   
    50    17    72 1   
    51    18    19 1   
    52    18    23 1   
    53    18    73 1   
    54    19    74 1   
    55    19    75 1   
    56    20    23 1   
    57    20    76 1   
    58    20    77 1   
    59    22    78 1   
    60    23    48 1   
    61    26    48 2   
    62    27    42 1   
    63    27    43 1   
    64    27    79 1   
    65    28    29 1   
    66    28    40 1   
    67    28    80 1   
    68    29    30 1   
    69    29    38 1   
    70    29    81 1   
    71    30    31 1   
    72    30    32 1   
    73    30    82 1   
    74    31    83 1   
    75    31    84 1   
    76    31    85 1   
    77    32    33 1   
    78    32    86 1   
    79    32    87 1   
    80    33    88 1   
    81    33    89 1   
    82    33    90 1   
    83    34    35 1   
    84    34    39 1   
    85    34    91 1   
    86    34   115 1   
    87    35    36 1   
    88    35    37 1   
    89    35    92 1   
    90    36    93 1   
    91    36    94 1   
    92    36    95 1   
    93    37    96 1   
    94    37    97 1   
    95    37    98 1   
    96    38    50 1   
    97    39    47 1   
    98    39    99 1   
    99    40    49 1   
   100    41   115 2   
   101    42   100 1   
   102    42   101 1   
   103    42   102 1   
   104    43   103 1   
   105    43   104 1   
   106    43   105 1   
   107    44    45 1   
   108    44    46 1   
   109    47   106 1   
   110    47   107 1   
   111    47   108 1   
   112    49   109 1   
   113    49   110 1   
   114    49   111 1   
   115    50   112 1   
   116    50   113 1   
   117    50   114 1   
@<TRIPOS>SUBSTRUCTURE
     1 6DO         1 TEMP              0 ****  ****    0 ROOT
