@<TRIPOS>MOLECULE
6DO
  116   117     1     0     0
SMALL
No Charge or Current Charge


@<TRIPOS>ATOM
      1 C10          5.3740    56.0500    13.0030 c3         1 6DO      -0.043300
      2 C13          1.8800    52.9130    14.1330 c3         1 6DO       0.166300
      3 C15          0.7060    55.2230    14.0030 c3         1 6DO      -0.075100
      4 C17          3.9030    50.4130    12.0110 c5         1 6DO      -0.096400
      5 C20          0.1950    51.1340    14.3890 c3         1 6DO       0.152900
      6 C21          3.7030    49.1350    16.2830 c3         1 6DO      -0.158400
      7 C22          2.2350    44.9980    16.5090 c          1 6DO       0.596100
      8 N01          2.1580    42.6100    15.8990 ns         1 6DO      -0.497900
      9 C02          2.7240    43.9150    15.4860 c3         1 6DO       0.037700
     10 C03          6.4710    53.9770    15.0740 ca         1 6DO      -0.113000
     11 C05          6.7940    52.5620    13.1260 ca         1 6DO      -0.113000
     12 C06          6.8570    51.4310    13.9580 ca         1 6DO      -0.114000
     13 C07          6.7200    51.5710    15.3480 ca         1 6DO      -0.137000
     14 C08          6.5280    52.8450    15.9050 ca         1 6DO      -0.114000
     15 C09          6.5530    55.0690    12.7590 c3         1 6DO      -0.038100
     16 C11          3.2300    55.0520    13.9470 c          1 6DO       0.592100
     17 C12          1.9140    54.3570    13.5580 c3         1 6DO      -0.149700
     18 C14          3.0800    52.0120    13.6350 c5         1 6DO       0.095700
     19 C16          2.9550    51.6210    12.1270 c5         1 6DO      -0.086400
     20 C18          3.5700    49.6110    13.2920 c5         1 6DO       0.108000
     21 O23          1.0990    44.9200    16.9670 o          1 6DO      -0.627100
     22 N24          4.0520    55.3820    12.8900 ns         1 6DO      -0.456900
     23 N25          3.2630    50.6770    14.2780 n          1 6DO      -0.400800
     24 O26          0.5960    52.3560    13.7460 os         1 6DO      -0.469000
     25 O27          3.5190    55.3030    15.1090 o          1 6DO      -0.638100
     26 O28          3.3970    51.4910    16.4230 o          1 6DO      -0.606100
     27 C29          2.3240    44.2600    14.0120 c3         1 6DO      -0.065700
     28 C30          2.3980    48.5370    16.8530 c3         1 6DO       0.166300
     29 C31          2.5850    47.2210    17.7020 c3         1 6DO       0.079700
     30 C33          3.3550    47.4220    19.0600 c3         1 6DO      -0.063700
     31 C34          2.7520    48.5550    19.9310 c3         1 6DO      -0.093100
     32 C35          3.4670    46.0910    19.9060 c3         1 6DO      -0.073400
     33 C36          2.1530    45.4370    20.4560 c3         1 6DO      -0.093100
     34 C39          2.0220    40.2200    16.5710 c3         1 6DO       0.102500
     35 C41          2.3170    39.9130    18.0740 c3         1 6DO      -0.052700
     36 C42          1.9790    41.1170    18.9870 c3         1 6DO      -0.091600
     37 C43          3.7560    39.4040    18.3450 c3         1 6DO      -0.091600
     38 N44          3.0970    46.0710    16.8750 n          1 6DO      -0.383800
     39 N45          2.1260    38.9640    15.7560 n7         1 6DO      -0.841400
     40 O46          1.5460    48.2740    15.7170 os         1 6DO      -0.459000
     41 O47          4.0540    41.3610    15.7210 o          1 6DO      -0.591100
     42 C48          2.9380    45.5850    13.4990 c3         1 6DO      -0.092100
     43 C49          2.6400    43.1130    13.0180 c3         1 6DO      -0.092100
     44 C50          5.4500    57.2650    12.0300 c          1 6DO       0.714000
     45 O51          5.7520    58.3560    12.4930 o          1 6DO      -0.722000
     46 O52          5.1240    57.0990    10.8620 o          1 6DO      -0.722000
     47 C40          1.7160    39.0830    14.3420 c3         1 6DO       0.143100
     48 C19          3.4510    50.5240    15.6760 c          1 6DO       0.608100
     49 C32          0.1460    48.0830    15.9960 c3         1 6DO       0.143900
     50 C37          4.5610    45.9750    16.6210 c3         1 6DO       0.080300
     51 C04          6.5900    53.8450    13.6750 ca         1 6DO      -0.051300
     52 H101         5.4720    56.4620    14.0140 h1         1 6DO       0.070700
     53 H131         1.9320    53.0060    15.2240 h1         1 6DO       0.081700
     54 H151         0.8030    56.2440    13.6140 hc         1 6DO       0.038033
     55 H152        -0.2390    54.8120    13.6260 hc         1 6DO       0.038033
     56 H153         0.6450    55.2780    15.0960 hc         1 6DO       0.038033
     57 H171         3.7360    49.8280    11.0990 hc         1 6DO       0.048700
     58 H172         4.9500    50.7320    12.0030 hc         1 6DO       0.048700
     59 H203        -0.8710    50.9470    14.2120 h1         1 6DO       0.024700
     60 H202         0.7480    50.2760    13.9890 h1         1 6DO       0.024700
     61 H201         0.3560    51.1880    15.4740 h1         1 6DO       0.024700
     62 H212         4.0960    48.4340    15.5470 hc         1 6DO       0.062200
     63 H211         4.4220    49.2530    17.1000 hc         1 6DO       0.062200
     64 H021         3.8160    43.8420    15.5400 h1         1 6DO       0.085700
     65 H031         6.3320    54.9580    15.5220 ha         1 6DO       0.116500
     66 H051         6.9060    52.4400    12.0510 ha         1 6DO       0.116500
     67 H061         7.0120    50.4450    13.5250 ha         1 6DO       0.098500
     68 H071         6.7650    50.6960    15.9910 ha         1 6DO       0.091000
     69 H081         6.4240    52.9570    16.9820 ha         1 6DO       0.098500
     70 H092         7.4920    55.6250    12.8710 hc         1 6DO       0.056700
     71 H091         6.5200    54.7490    11.7100 hc         1 6DO       0.056700
     72 H121         1.8760    54.2820    12.4650 hc         1 6DO       0.058700
     73 H141         4.0070    52.5780    13.7920 h1         1 6DO       0.098700
     74 H162         3.2420    52.4400    11.4580 hc         1 6DO       0.063700
     75 H161         1.9350    51.3270    11.8570 hc         1 6DO       0.063700
     76 H182         2.6980    48.9600    13.1480 h1         1 6DO       0.036700
     77 H181         4.4300    48.9920    13.5750 h1         1 6DO       0.036700
     78 H241         3.7050    55.1770    11.9600 hn         1 6DO       0.317500
     79 H291         1.2340    44.3940    14.0010 hc         1 6DO       0.061700
     80 H301         1.9290    49.3000    17.4870 h1         1 6DO       0.071700
     81 H311         1.5730    46.9640    18.0320 h1         1 6DO       0.085700
     82 H331         4.3820    47.7300    18.8400 hc         1 6DO       0.043700
     83 H342         3.2350    48.5860    20.9150 hc         1 6DO       0.039700
     84 H343         2.9030    49.5360    19.4680 hc         1 6DO       0.039700
     85 H341         1.6760    48.4060    20.0840 hc         1 6DO       0.039700
     86 H351         3.9970    45.3340    19.3180 hc         1 6DO       0.041200
     87 H352         4.1200    46.2900    20.7640 hc         1 6DO       0.041200
     88 H361         2.3890    44.5230    21.0140 hc         1 6DO       0.033700
     89 H363         1.6290    46.1220    21.1330 hc         1 6DO       0.033700
     90 H362         1.4740    45.1700    19.6400 hc         1 6DO       0.033700
     91 H391         0.9730    40.5430    16.5280 h1         1 6DO       0.017700
     92 H411         1.6370    39.1030    18.3710 hc         1 6DO       0.034700
     93 H421         2.0760    40.8400    20.0440 hc         1 6DO       0.041867
     94 H423         2.6520    41.9630    18.7970 hc         1 6DO       0.041867
     95 H422         0.9480    41.4540    18.8230 hc         1 6DO       0.041867
     96 H432         3.8670    39.1120    19.3960 hc         1 6DO       0.041867
     97 H431         3.9910    38.5280    17.7300 hc         1 6DO       0.041867
     98 H433         4.4990    40.1820    18.1340 hc         1 6DO       0.041867
     99 H452         1.5380    38.2460    16.1980 hn         1 6DO       0.411000
    100 H482         2.6750    46.4270    14.1470 hc         1 6DO       0.039533
    101 H481         4.0300    45.5150    13.4410 hc         1 6DO       0.039533
    102 H483         2.5630    45.8190    12.4950 hc         1 6DO       0.039533
    103 H493         2.0690    42.2080    13.2580 hc         1 6DO       0.039533
    104 H491         2.3750    43.4020    11.9940 hc         1 6DO       0.039533
    105 H492         3.7080    42.8640    13.0370 hc         1 6DO       0.039533
    106 H403         1.8070    38.1150    13.8330 h1         1 6DO       0.031700
    107 H401         0.6700    39.4120    14.2640 h1         1 6DO       0.031700
    108 H402         2.3460    39.8060    13.8070 h1         1 6DO       0.031700
    109 H321        -0.4100    47.9510    15.0590 h1         1 6DO       0.033367
    110 H323        -0.0300    47.1980    16.6160 h1         1 6DO       0.033367
    111 H322        -0.2700    48.9560    16.5150 h1         1 6DO       0.033367
    112 H371         5.0980    46.8380    17.0260 h1         1 6DO       0.044367
    113 H372         4.9590    45.0670    17.0930 h1         1 6DO       0.044367
    114 H373         4.7580    45.9350    15.5450 h1         1 6DO       0.044367
    115 C38          2.8700    41.4340    16.0300 c          1 6DO       0.604100
    116 H011         1.1880    42.5900    16.1910 hn         1 6DO       0.319500
@<TRIPOS>BOND
     1     1    15 1   
     2     1    22 1   
     3     1    44 1   
     4     1    52 1   
     5     2    17 1   
     6     2    18 1   
     7     2    24 1   
     8     2    53 1   
     9     3    17 1   
    10     3    54 1   
    11     3    55 1   
    12     3    56 1   
    13     4    19 1   
    14     4    20 1   
    15     4    57 1   
    16     4    58 1   
    17     5    24 1   
    18     5    59 1   
    19     5    60 1   
    20     5    61 1   
    21     6    28 1   
    22     6    48 1   
    23     6    62 1   
    24     6    63 1   
    25     7     9 1   
    26     7    21 2   
    27     7    38 1   
    28     8     9 1   
    29     8   115 1   
    30     8   116 1   
    31     9    27 1   
    32     9    64 1   
    33    10    14 ar  
    34    10    51 ar  
    35    10    65 1   
    36    11    12 ar  
    37    11    51 ar  
    38    11    66 1   
    39    12    13 ar  
    40    12    67 1   
    41    13    14 ar  
    42    13    68 1   
    43    14    69 1   
    44    15    51 1   
    45    15    70 1   
    46    15    71 1   
    47    16    17 1   
    48    16    22 1   
    49    16    25 2   
    50    17    72 1   
    51    18    19 1   
    52    18    23 1   
    53    18    73 1   
    54    19    74 1   
    55    19    75 1   
    56    20    23 1   
    57    20    76 1   
    58    20    77 1   
    59    22    78 1   
    60    23    48 1   
    61    26    48 2   
    62    27    42 1   
    63    27    43 1   
    64    27    79 1   
    65    28    29 1   
    66    28    40 1   
    67    28    80 1   
    68    29    30 1   
    69    29    38 1   
    70    29    81 1   
    71    30    31 1   
    72    30    32 1   
    73    30    82 1   
    74    31    83 1   
    75    31    84 1   
    76    31    85 1   
    77    32    33 1   
    78    32    86 1   
    79    32    87 1   
    80    33    88 1   
    81    33    89 1   
    82    33    90 1   
    83    34    35 1   
    84    34    39 1   
    85    34    91 1   
    86    34   115 1   
    87    35    36 1   
    88    35    37 1   
    89    35    92 1   
    90    36    93 1   
    91    36    94 1   
    92    36    95 1   
    93    37    96 1   
    94    37    97 1   
    95    37    98 1   
    96    38    50 1   
    97    39    47 1   
    98    39    99 1   
    99    40    49 1   
   100    41   115 2   
   101    42   100 1   
   102    42   101 1   
   103    42   102 1   
   104    43   103 1   
   105    43   104 1   
   106    43   105 1   
   107    44    45 1   
   108    44    46 1   
   109    47   106 1   
   110    47   107 1   
   111    47   108 1   
   112    49   109 1   
   113    49   110 1   
   114    49   111 1   
   115    50   112 1   
   116    50   113 1   
   117    50   114 1   
@<TRIPOS>SUBSTRUCTURE
     1 6DO         1 TEMP              0 ****  ****    0 ROOT
