@<TRIPOS>MOLECULE
6DP
   23    24     1     0     0
SMALL
No Charge or Current Charge


@<TRIPOS>ATOM
      1 C1           1.4910    -0.4010     0.2000 ca         1 6DP      -0.264900
      2 C2           2.6180     0.3380     0.0180 ca         1 6DP      -0.028200
      3 C3           1.9430    -1.7610     0.3400 cc         1 6DP       0.340800
      4 C4           2.5820     1.7250    -0.1530 ca         1 6DP      -0.129000
      5 C5           1.3160     2.3470    -0.1270 ca         1 6DP      -0.063000
      6 C6           0.1420     1.5750     0.0630 ca         1 6DP      -0.118000
      7 O1          -2.9130     0.8050     0.7580 o          1 6DP      -0.525000
      8 S           -2.4820    -0.3790     0.0120 s6         1 6DP       1.190100
      9 O           -3.1420    -1.6690     0.2150 o          1 6DP      -0.525000
     10 C7          -2.4580    -0.0130    -1.7300 c3         1 6DP      -0.379100
     11 C            0.2150     0.1700     0.2250 ca         1 6DP       0.303000
     12 N1           3.6860    -0.5320     0.0450 na         1 6DP      -0.056400
     13 N2           3.2790    -1.8580     0.2470 nd         1 6DP      -0.503100
     14 H1           1.3910    -2.6770     0.5020 h4         1 6DP       0.046800
     15 H2           3.4920     2.3040    -0.2970 ha         1 6DP       0.126000
     16 H3           1.2400     3.4260    -0.2500 ha         1 6DP       0.124000
     17 H4          -0.8140     2.0860     0.0890 ha         1 6DP       0.148000
     18 H5          -1.8630     0.8930    -1.8760 h1         1 6DP       0.104033
     19 H6          -2.0110    -0.8700    -2.2430 h1         1 6DP       0.104033
     20 H7          -3.4950     0.1400    -2.0460 h1         1 6DP       0.104033
     21 H8          -0.7660    -1.6460     0.3820 hn         1 6DP       0.494000
     22 H9           4.6680    -0.2830    -0.0640 hn         1 6DP       0.381000
     23 N           -0.8950    -0.6460     0.4160 nu         1 6DP      -0.875100
@<TRIPOS>BOND
     1     1     2 ar  
     2     1     3 1   
     3     1    11 ar  
     4     2     4 ar  
     5     2    12 1   
     6     3    13 2   
     7     3    14 1   
     8     4     5 ar  
     9     4    15 1   
    10     5     6 ar  
    11     5    16 1   
    12     6    11 ar  
    13     6    17 1   
    14     7     8 2   
    15     8     9 2   
    16     8    10 1   
    17     8    23 1   
    18    10    18 1   
    19    10    19 1   
    20    10    20 1   
    21    11    23 1   
    22    12    13 1   
    23    12    22 1   
    24    21    23 1   
@<TRIPOS>SUBSTRUCTURE
     1 6DP         1 TEMP              0 ****  ****    0 ROOT
