@<TRIPOS>MOLECULE
6DP
   23    24     1     0     0
SMALL
bcc


@<TRIPOS>ATOM
      1 C1           1.2450    -0.2830     0.1120 ca         1 6DP      -0.264900
      2 C2           2.4220     0.4340    -0.1600 ca         1 6DP      -0.028200
      3 C3           1.5820    -1.6330    -0.1720 cc         1 6DP       0.340800
      4 C4           2.5020     1.8240    -0.0220 ca         1 6DP      -0.147000
      5 C5           1.3650     2.4640     0.4120 ca         1 6DP      -0.081000
      6 C6           0.1760     1.7690     0.7120 ca         1 6DP      -0.136000
      7 O1          -2.7150     1.2340    -0.3010 o          1 6DP      -0.595800
      8 S           -2.4020    -0.1770    -0.1660 s6         1 6DP       1.220900
      9 O           -3.3980    -1.0900     0.3700 o          1 6DP      -0.595800
     10 C7          -1.8570    -0.7780    -1.7480 c3         1 6DP      -0.268300
     11 C            0.1010     0.4020     0.5580 ca         1 6DP       0.164600
     12 N1           3.3270    -0.4880    -0.5610 na         1 6DP      -0.006100
     13 N2           2.8270    -1.7230    -0.5700 nd         1 6DP      -0.503100
     14 H1           0.9670    -2.5170    -0.0960 h4         1 6DP       0.046800
     15 H2           3.4100     2.3690    -0.2450 ha         1 6DP       0.144000
     16 H3           1.3790     3.5380     0.5410 ha         1 6DP       0.142000
     17 H4          -0.6790     2.3180     1.0780 ha         1 6DP       0.166000
     18 H5          -1.0200    -0.1770    -2.0950 h1         1 6DP       0.104033
     19 H6          -1.5640    -1.8210    -1.6540 h1         1 6DP       0.104033
     20 H7          -2.6900    -0.6850    -2.4430 h1         1 6DP       0.104033
     21 H8          -0.9520    -1.2630     1.1660 hn         1 6DP       0.438800
     22 H9           4.2820    -0.3340    -0.8400 hn         1 6DP       0.330700
     23 N           -1.0870    -0.3080     0.8500 nu         1 6DP      -0.681500
@<TRIPOS>BOND
     1     1     2 ar  
     2     1     3 1   
     3     1    11 ar  
     4     2     4 ar  
     5     2    12 1   
     6     3    13 2   
     7     3    14 1   
     8     4     5 ar  
     9     4    15 1   
    10     5     6 ar  
    11     5    16 1   
    12     6    11 ar  
    13     6    17 1   
    14     7     8 2   
    15     8     9 2   
    16     8    10 1   
    17     8    23 1   
    18    10    18 1   
    19    10    19 1   
    20    10    20 1   
    21    11    23 1   
    22    12    13 1   
    23    12    22 1   
    24    21    23 1   
@<TRIPOS>SUBSTRUCTURE
     1 6DP         1 TEMP              0 ****  ****    0 ROOT
