@<TRIPOS>MOLECULE
6DQ
   25    27     1     0     0
SMALL
abcg2


@<TRIPOS>ATOM
      1 C4           3.5070     0.9300    -0.1630 ca         1 6DQ      -0.038000
      2 C6           2.8210    -1.7220     0.2990 ca         1 6DQ      -0.103000
      3 C10         -0.6960     0.1640    -0.0060 cc         1 6DQ       0.577800
      4 C13         -2.9860     1.0680     0.2800 ca         1 6DQ      -0.013000
      5 C15         -4.3550     0.8870     0.2440 ca         1 6DQ      -0.174000
      6 C17         -4.8500    -0.3590    -0.1170 ca         1 6DQ       0.357900
      7 C1           2.1560     0.5860    -0.0500 ca         1 6DQ      -0.182600
      8 C2           1.8290    -0.7500     0.1760 ca         1 6DQ      -0.100000
      9 C3           1.1370     1.6500    -0.1620 c          1 6DQ       0.719100
     10 S5           0.1810    -1.2910     0.3480 ss         1 6DQ      -0.017200
     11 N7          -0.2090     1.3310    -0.1960 nd         1 6DQ      -0.670100
     12 O8           1.4560     2.8190    -0.2470 o          1 6DQ      -0.499100
     13 C9           4.4930    -0.0270    -0.0490 ca         1 6DQ      -0.118000
     14 C11          4.1480    -1.3560     0.1860 ca         1 6DQ      -0.071000
     15 C12         -2.1590    -0.0070    -0.0400 ca         1 6DQ      -0.215900
     16 C14         -2.7620    -1.2100    -0.4050 ca         1 6DQ       0.367900
     17 N16         -4.0740    -1.3850    -0.4420 nb         1 6DQ      -0.668000
     18 H1           3.7730     1.9620    -0.3440 ha         1 6DQ       0.141000
     19 H2           2.5550    -2.7560     0.4770 ha         1 6DQ       0.129000
     20 H4          -5.0310     1.6920     0.4960 ha         1 6DQ       0.132000
     21 H5          -5.9200    -0.5330    -0.1450 h4         1 6DQ       0.024100
     22 H6           5.5330     0.2550    -0.1410 ha         1 6DQ       0.124000
     23 H7           4.9180    -2.1100     0.2780 ha         1 6DQ       0.121000
     24 H8          -2.1630    -2.0650    -0.7030 h4         1 6DQ       0.029100
     25 H3          -2.5580     2.0200     0.5640 ha         1 6DQ       0.147000
@<TRIPOS>BOND
     1     1     7 ar  
     2     1    13 ar  
     3     1    18 1   
     4     2     8 ar  
     5     2    14 ar  
     6     2    19 1   
     7     3    10 1   
     8     3    11 2   
     9     3    15 1   
    10     4     5 ar  
    11     4    15 ar  
    12     4    25 1   
    13     5     6 ar  
    14     5    20 1   
    15     6    17 ar  
    16     6    21 1   
    17     7     8 ar  
    18     7     9 1   
    19     8    10 1   
    20     9    11 1   
    21     9    12 2   
    22    13    14 ar  
    23    13    22 1   
    24    14    23 1   
    25    15    16 ar  
    26    16    17 ar  
    27    16    24 1   
@<TRIPOS>SUBSTRUCTURE
     1 6DQ         1 TEMP              0 ****  ****    0 ROOT
