@<TRIPOS>MOLECULE
6DQ
   25    27     1     0     0
SMALL
No Charge or Current Charge


@<TRIPOS>ATOM
      1 C4           3.4610     0.9420    -0.2310 ca         1 6DQ      -0.038000
      2 C6           2.7390    -1.7300     0.2050 ca         1 6DQ      -0.103000
      3 C10         -0.6960     0.2200     0.5260 cc         1 6DQ       0.577800
      4 C13         -2.9960     1.1290     0.0620 ca         1 6DQ      -0.013000
      5 C15         -4.3350     0.8790    -0.2750 ca         1 6DQ      -0.174000
      6 C17         -4.7570    -0.4430    -0.4700 ca         1 6DQ       0.357900
      7 C1           2.1670     0.6360     0.2480 ca         1 6DQ      -0.182600
      8 C2           1.8090    -0.7050     0.4600 ca         1 6DQ      -0.100000
      9 C3           1.1850     1.7360     0.5010 c          1 6DQ       0.719100
     10 S5           0.2330    -1.1560     1.1800 ss         1 6DQ      -0.017200
     11 N7          -0.1760     1.4380     0.4840 nd         1 6DQ      -0.670100
     12 O8           1.5320     2.8990     0.6400 o          1 6DQ      -0.499100
     13 C9           4.3820    -0.0850    -0.4960 ca         1 6DQ      -0.118000
     14 C11          4.0210    -1.4240    -0.2800 ca         1 6DQ      -0.071000
     15 C12         -2.1150     0.0320     0.2030 ca         1 6DQ      -0.215900
     16 C14         -2.6310    -1.2600    -0.0300 ca         1 6DQ       0.367900
     17 N16         -3.9220    -1.5000    -0.3560 nb         1 6DQ      -0.668000
     18 H1           3.7540     1.9760    -0.4060 ha         1 6DQ       0.141000
     19 H2           2.4710    -2.7680     0.3910 ha         1 6DQ       0.129000
     20 H4          -5.0420     1.6960    -0.3850 ha         1 6DQ       0.132000
     21 H5          -5.7910    -0.6650    -0.7320 h4         1 6DQ       0.024100
     22 H6           5.3750     0.1570    -0.8680 ha         1 6DQ       0.124000
     23 H7           4.7340    -2.2210    -0.4780 ha         1 6DQ       0.121000
     24 H8          -2.0010    -2.1450     0.0320 h4         1 6DQ       0.029100
     25 H3          -2.6600     2.1540     0.2130 ha         1 6DQ       0.147000
@<TRIPOS>BOND
     1     1     7 ar  
     2     1    13 ar  
     3     1    18 1   
     4     2     8 ar  
     5     2    14 ar  
     6     2    19 1   
     7     3    10 1   
     8     3    11 2   
     9     3    15 1   
    10     4     5 ar  
    11     4    15 ar  
    12     4    25 1   
    13     5     6 ar  
    14     5    20 1   
    15     6    17 ar  
    16     6    21 1   
    17     7     8 ar  
    18     7     9 1   
    19     8    10 1   
    20     9    11 1   
    21     9    12 2   
    22    13    14 ar  
    23    13    22 1   
    24    14    23 1   
    25    15    16 ar  
    26    16    17 ar  
    27    16    24 1   
@<TRIPOS>SUBSTRUCTURE
     1 6DQ         1 TEMP              0 ****  ****    0 ROOT
