@<TRIPOS>MOLECULE
6DR
   48    50     1     0     0
SMALL
No Charge or Current Charge


@<TRIPOS>ATOM
      1 N1          -5.5320     0.5410    -0.8330 nb         1 6DR      -0.341000
      2 C2          -5.5650    -0.7710    -0.5880 ca         1 6DR       0.425900
      3 N3          -4.6350    -1.5220     0.0140 nb         1 6DR      -0.292000
      4 C4          -3.5240    -0.8810     0.4310 ca         1 6DR       0.219300
      5 C5          -3.3700     0.5130     0.2320 ca         1 6DR      -0.213000
      6 C6          -4.4330     1.1750    -0.4170 ca         1 6DR       0.439900
      7 CAA         -1.3070    -2.1450     0.1770 c3         1 6DR      -0.083100
      8 CAB          1.2290     3.9290    -2.4630 c3         1 6DR       0.146900
      9 NAC         -6.6700    -1.4210    -1.0110 nv         1 6DR      -1.062900
     10 NAD         -4.4220     2.5070    -0.6890 nv         1 6DR      -1.070900
     11 CAE         -1.1640     1.7680     1.0110 c1         1 6DR      -0.153100
     12 CAF         -2.1820     1.2080     0.6580 cg         1 6DR      -0.086000
     13 CAG          4.9620    -3.2140     0.8220 ca         1 6DR       0.334900
     14 CAH          4.6310    -2.3610     2.9470 ca         1 6DR       0.334900
     15 CAI          4.2850    -2.1330     0.2350 ca         1 6DR      -0.162500
     16 CAJ          3.9390    -1.2490     2.4400 ca         1 6DR      -0.162500
     17 CAK          3.3860     0.5970    -0.8010 ca         1 6DR      -0.051000
     18 CAL          2.7040     1.6940    -1.3520 ca         1 6DR      -0.206000
     19 CAM          1.9520     0.6830     1.1510 ca         1 6DR      -0.054000
     20 CAN         -2.4700    -1.7540     1.1160 c3         1 6DR      -0.135700
     21 CAO          0.1040     2.3970     1.3990 c3         1 6DR       0.078000
     22 NAP          5.1390    -3.3340     2.1570 nb         1 6DR      -0.664000
     23 OAS          0.9400     3.3720    -1.1680 os         1 6DR      -0.330100
     24 CAV          3.7490    -1.1050     1.0450 cp         1 6DR       0.021000
     25 CAW          3.0240     0.0680     0.4610 cp         1 6DR      -0.088000
     26 CAX          1.2630     1.7870     0.6120 ca         1 6DR      -0.122300
     27 CAZ          1.6380     2.2950    -0.6510 ca         1 6DR       0.163100
     28 HAA         -0.5840    -2.7790     0.7060 hc         1 6DR       0.037367
     29 HAAA        -1.6810    -2.7020    -0.6900 hc         1 6DR       0.037367
     30 HAAB        -0.7790    -1.2540    -0.1870 hc         1 6DR       0.037367
     31 HAB          2.2590     4.3040    -2.5060 h1         1 6DR       0.043700
     32 HABA         1.0940     3.1760    -3.2500 h1         1 6DR       0.043700
     33 HABB         0.5530     4.7660    -2.6750 h1         1 6DR       0.043700
     34 HNAC        -7.2760    -0.9470    -1.6760 hn         1 6DR       0.495500
     35 HNAA        -6.6400    -2.4370    -1.0640 hn         1 6DR       0.495500
     36 HNAD        -3.5310     2.9910    -0.6170 hn         1 6DR       0.498500
     37 HNAB        -5.0740     2.8560    -1.3880 hn         1 6DR       0.498500
     38 HAG          5.3740    -4.0100     0.2040 h4         1 6DR       0.018100
     39 HAH          4.7870    -2.4750     4.0190 h4         1 6DR       0.018100
     40 HAI          4.1690    -2.1080    -0.8440 ha         1 6DR       0.122500
     41 HAJ          3.5700    -0.4990     3.1330 ha         1 6DR       0.122500
     42 HAK          4.2130     0.1620    -1.3570 ha         1 6DR       0.116000
     43 HAL          3.0190     2.0610    -2.3240 ha         1 6DR       0.121000
     44 HAM          1.6390     0.2850     2.1130 ha         1 6DR       0.118000
     45 HAN         -2.0640    -1.2400     1.9960 hc         1 6DR       0.061200
     46 HANA        -2.9310    -2.6730     1.5010 hc         1 6DR       0.061200
     47 HAO          0.0350     3.4800     1.2380 hc         1 6DR       0.064200
     48 HAOA         0.2530     2.2600     2.4770 hc         1 6DR       0.064200
@<TRIPOS>BOND
     1     1     2 ar  
     2     1     6 ar  
     3     2     3 ar  
     4     2     9 1   
     5     3     4 ar  
     6     4     5 ar  
     7     4    20 1   
     8     5     6 ar  
     9     5    12 1   
    10     6    10 1   
    11     7    20 1   
    12     7    28 1   
    13     7    29 1   
    14     7    30 1   
    15     8    23 1   
    16     8    31 1   
    17     8    32 1   
    18     8    33 1   
    19     9    34 1   
    20     9    35 1   
    21    10    36 1   
    22    10    37 1   
    23    11    12 3   
    24    11    21 1   
    25    13    15 ar  
    26    13    22 ar  
    27    13    38 1   
    28    14    16 ar  
    29    14    22 ar  
    30    14    39 1   
    31    15    24 ar  
    32    15    40 1   
    33    16    24 ar  
    34    16    41 1   
    35    17    18 ar  
    36    17    25 ar  
    37    17    42 1   
    38    18    27 ar  
    39    18    43 1   
    40    19    25 ar  
    41    19    26 ar  
    42    19    44 1   
    43    20    45 1   
    44    20    46 1   
    45    21    26 1   
    46    21    47 1   
    47    21    48 1   
    48    23    27 1   
    49    24    25 1   
    50    26    27 ar  
@<TRIPOS>SUBSTRUCTURE
     1 6DR         1 TEMP              0 ****  ****    0 ROOT
