@<TRIPOS>MOLECULE
6DR
   48    50     1     0     0
SMALL
abcg2


@<TRIPOS>ATOM
      1 N1          -4.0650    -1.1270    -1.8940 nb         1 6DR      -0.341000
      2 C2          -5.2480    -0.9690    -1.3040 ca         1 6DR       0.425900
      3 N3          -5.4670    -0.4390    -0.0960 nb         1 6DR      -0.292000
      4 C4          -4.3990    -0.0310     0.5810 ca         1 6DR       0.219300
      5 C5          -3.1080    -0.1410     0.0710 ca         1 6DR      -0.213000
      6 C6          -2.9950    -0.7180    -1.2230 ca         1 6DR       0.439900
      7 CAA         -4.5960    -0.5890     3.0070 c3         1 6DR      -0.083100
      8 CAB          0.4530     4.1630    -0.7580 c3         1 6DR       0.146900
      9 NAC         -6.3330    -1.3550    -2.0020 nv         1 6DR      -1.062900
     10 NAD         -1.8000    -0.8470    -1.8150 nv         1 6DR      -1.070900
     11 CAE         -0.9230     0.6110     1.3120 c1         1 6DR      -0.153100
     12 CAF         -1.9480     0.2750     0.7700 cg         1 6DR      -0.086000
     13 CAG          6.1530    -2.1550    -1.2490 ca         1 6DR       0.334900
     14 CAH          5.9160    -2.4780     0.9790 ca         1 6DR       0.334900
     15 CAI          5.1710    -1.1780    -1.2670 ca         1 6DR      -0.162500
     16 CAJ          4.9280    -1.5120     1.0690 ca         1 6DR      -0.162500
     17 CAK          3.4970     1.2770    -0.9310 ca         1 6DR      -0.051000
     18 CAL          2.5150     2.2570    -0.8960 ca         1 6DR      -0.206000
     19 CAM          2.4420     0.1500     0.8900 ca         1 6DR      -0.054000
     20 CAN         -4.6400     0.5180     1.9540 c3         1 6DR      -0.135700
     21 CAO          0.3300     1.0010     1.9500 c3         1 6DR       0.078000
     22 NAP          6.5300    -2.8050    -0.1530 nb         1 6DR      -0.664000
     23 OAS          0.4970     3.0780     0.1470 os         1 6DR      -0.330100
     24 CAV          4.5270    -0.8290    -0.0800 cp         1 6DR       0.021000
     25 CAW          3.4820     0.2070    -0.0430 cp         1 6DR      -0.088000
     26 CAX          1.4510     1.1110     0.9460 ca         1 6DR      -0.122300
     27 CAZ          1.4870     2.1810     0.0380 ca         1 6DR       0.163100
     28 HAA         -4.7860    -0.1810     4.0000 hc         1 6DR       0.037367
     29 HAAA        -5.3520    -1.3490     2.8070 hc         1 6DR       0.037367
     30 HAAB        -3.6220    -1.0780     3.0280 hc         1 6DR       0.037367
     31 HAB          1.3400     4.7960    -0.6800 h1         1 6DR       0.043700
     32 HABA         0.3480     3.8250    -1.7920 h1         1 6DR       0.043700
     33 HABB        -0.4210     4.7510    -0.4910 h1         1 6DR       0.043700
     34 HNAC        -6.2080    -1.9140    -2.8290 hn         1 6DR       0.495500
     35 HNAA        -7.2180    -1.4180    -1.5300 hn         1 6DR       0.495500
     36 HNAD        -0.9530    -0.6820    -1.2990 hn         1 6DR       0.498500
     37 HNAB        -1.7290    -1.3640    -2.6740 hn         1 6DR       0.498500
     38 HAG          6.6550    -2.4270    -2.1710 h4         1 6DR       0.018100
     39 HAH          6.2290    -3.0090     1.8710 h4         1 6DR       0.018100
     40 HAI          4.9070    -0.7140    -2.2080 ha         1 6DR       0.122500
     41 HAJ          4.4950    -1.2900     2.0360 ha         1 6DR       0.122500
     42 HAK          4.2930     1.3760    -1.6570 ha         1 6DR       0.116000
     43 HAL          2.5740     3.0740    -1.6020 ha         1 6DR       0.121000
     44 HAM          2.3880    -0.6800     1.5840 ha         1 6DR       0.118000
     45 HAN         -3.8940     1.2780     2.1910 hc         1 6DR       0.061200
     46 HANA        -5.6180     1.0010     1.9700 hc         1 6DR       0.061200
     47 HAO          0.1920     1.9450     2.4830 hc         1 6DR       0.064200
     48 HAOA         0.5990     0.2610     2.7080 hc         1 6DR       0.064200
@<TRIPOS>BOND
     1     1     2 ar  
     2     1     6 ar  
     3     2     3 ar  
     4     2     9 1   
     5     3     4 ar  
     6     4     5 ar  
     7     4    20 1   
     8     5     6 ar  
     9     5    12 1   
    10     6    10 1   
    11     7    20 1   
    12     7    28 1   
    13     7    29 1   
    14     7    30 1   
    15     8    23 1   
    16     8    31 1   
    17     8    32 1   
    18     8    33 1   
    19     9    34 1   
    20     9    35 1   
    21    10    36 1   
    22    10    37 1   
    23    11    12 3   
    24    11    21 1   
    25    13    15 ar  
    26    13    22 ar  
    27    13    38 1   
    28    14    16 ar  
    29    14    22 ar  
    30    14    39 1   
    31    15    24 ar  
    32    15    40 1   
    33    16    24 ar  
    34    16    41 1   
    35    17    18 ar  
    36    17    25 ar  
    37    17    42 1   
    38    18    27 ar  
    39    18    43 1   
    40    19    25 ar  
    41    19    26 ar  
    42    19    44 1   
    43    20    45 1   
    44    20    46 1   
    45    21    26 1   
    46    21    47 1   
    47    21    48 1   
    48    23    27 1   
    49    24    25 1   
    50    26    27 ar  
@<TRIPOS>SUBSTRUCTURE
     1 6DR         1 TEMP              0 ****  ****    0 ROOT
