@<TRIPOS>MOLECULE
6DT
   43    47     1     0     0
SMALL
bcc


@<TRIPOS>ATOM
      1 C20          7.9880     0.4750     0.8030 ca         1 6DT      -0.121000
      2 C21          7.2890     1.4990     1.4510 ca         1 6DT      -0.144000
      3 C19          7.3280    -0.4740     0.0320 ca         1 6DT      -0.129000
      4 C22          5.9080     1.6080     1.3510 ca         1 6DT      -0.081000
      5 C11          0.3650    -1.3590    -1.5090 ca         1 6DT      -0.167000
      6 C13          0.9560     0.4980    -0.0980 ca         1 6DT      -0.167000
      7 C10         -0.9680    -1.0060    -1.4350 ca         1 6DT      -0.089000
      8 C14         -0.3870     0.8450    -0.0240 ca         1 6DT      -0.089000
      9 C4          -6.9970     0.2340     0.9010 cc         1 6DT      -0.307800
     10 C3          -6.8470     1.2070    -0.0530 cd         1 6DT      -0.097100
     11 C26         -4.0270    -1.6390     1.7610 ca         1 6DT       0.655900
     12 C18          5.9510    -0.3550    -0.0600 ca         1 6DT      -0.079200
     13 C5          -5.7180    -0.3520     1.0620 ca         1 6DT       0.440100
     14 C23          5.2310     0.6650     0.5840 ca         1 6DT       0.098400
     15 C6          -4.8490     0.3140     0.1760 ca         1 6DT      -0.309800
     16 C12          1.3470    -0.6150    -0.8440 ca         1 6DT       0.187600
     17 C9          -1.3400     0.1010    -0.6890 ca         1 6DT       0.077100
     18 C7          -3.5180    -0.0990     0.1640 ca         1 6DT       0.692600
     19 C16          3.7910    -0.5110    -0.4510 cc         1 6DT       0.662700
     20 N27         -5.2990    -1.3460     1.8680 nb         1 6DT      -0.678000
     21 N25         -3.1220    -1.0650     0.9530 nb         1 6DT      -0.781000
     22 N17          4.9950    -1.0930    -0.7160 na         1 6DT      -0.304300
     23 N24          3.8850     0.5400     0.3210 nd         1 6DT      -0.631100
     24 N2          -5.5620     1.2640    -0.4970 na         1 6DT      -0.021400
     25 N15          2.6610    -1.0440    -0.9810 nu         1 6DT      -0.713600
     26 O8          -2.6600     0.5120    -0.6610 os         1 6DT      -0.374400
     27 H1           9.0640     0.4200     0.9030 ha         1 6DT       0.131000
     28 H2           7.8370     2.2210     2.0410 ha         1 6DT       0.132000
     29 H3           7.8670    -1.2660    -0.4700 ha         1 6DT       0.133000
     30 H4           5.3710     2.4030     1.8520 ha         1 6DT       0.146000
     31 H5           0.6490    -2.2270    -2.0930 ha         1 6DT       0.154000
     32 H6           1.6900     1.0910     0.4240 ha         1 6DT       0.154000
     33 H7          -1.7100    -1.5910    -1.9640 ha         1 6DT       0.145000
     34 H8          -0.6800     1.7120     0.5540 ha         1 6DT       0.145000
     35 H9          -7.9070    -0.0210     1.4190 ha         1 6DT       0.171000
     36 H10         -7.5840     1.8830    -0.4580 h4         1 6DT       0.165000
     37 H11         -3.6480    -2.4340     2.3930 h5         1 6DT       0.048100
     38 H12         -4.6890     1.6460    -2.3680 h1         1 6DT       0.056033
     39 H13         -5.8920     2.8160    -1.8190 h1         1 6DT       0.056033
     40 H14         -4.2810     2.8140    -1.0970 h1         1 6DT       0.056033
     41 H15          5.1540    -1.9100    -1.2840 hn         1 6DT       0.302700
     42 H17          2.7890    -1.8620    -1.5560 hn         1 6DT       0.439800
     43 C1          -5.0690     2.1820    -1.5010 c3         1 6DT       0.037600
@<TRIPOS>BOND
     1     1     2 ar  
     2     1     3 ar  
     3     1    27 1   
     4     2     4 ar  
     5     2    28 1   
     6     3    12 ar  
     7     3    29 1   
     8     4    14 ar  
     9     4    30 1   
    10     5     7 ar  
    11     5    16 ar  
    12     5    31 1   
    13     6     8 ar  
    14     6    16 ar  
    15     6    32 1   
    16     7    17 ar  
    17     7    33 1   
    18     8    17 ar  
    19     8    34 1   
    20     9    10 2   
    21     9    13 1   
    22     9    35 1   
    23    10    24 1   
    24    10    36 1   
    25    11    20 ar  
    26    11    21 ar  
    27    11    37 1   
    28    12    14 ar  
    29    12    22 1   
    30    13    15 ar  
    31    13    20 ar  
    32    14    23 1   
    33    15    18 ar  
    34    15    24 1   
    35    16    25 1   
    36    17    26 1   
    37    18    21 ar  
    38    18    26 1   
    39    19    22 1   
    40    19    23 2   
    41    19    25 1   
    42    22    41 1   
    43    24    43 1   
    44    25    42 1   
    45    38    43 1   
    46    39    43 1   
    47    40    43 1   
@<TRIPOS>SUBSTRUCTURE
     1 6DT         1 TEMP              0 ****  ****    0 ROOT
