@<TRIPOS>MOLECULE
6DT
   43    47     1     0     0
SMALL
No Charge or Current Charge


@<TRIPOS>ATOM
      1 C20          8.1190     0.1160     0.7260 ca         1 6DT      -0.103000
      2 C21          7.4810     0.9380     1.6870 ca         1 6DT      -0.126000
      3 C19          7.3610    -0.5380    -0.2670 ca         1 6DT      -0.111000
      4 C22          6.0780     1.1130     1.6610 ca         1 6DT      -0.063000
      5 C11          0.2670    -1.1400    -1.0860 ca         1 6DT      -0.149000
      6 C13          1.0100     1.0870    -0.4690 ca         1 6DT      -0.149000
      7 C10         -1.0660    -0.7720    -0.8200 ca         1 6DT      -0.071000
      8 C14         -0.3200     1.4600    -0.2020 ca         1 6DT      -0.071000
      9 C4          -7.1260    -0.2720     0.4820 cc         1 6DT      -0.357800
     10 C3          -7.0010     0.6950    -0.5120 cd         1 6DT      -0.147100
     11 C26         -4.1100    -1.4590     2.1520 ca         1 6DT       0.129900
     12 C18          5.9760    -0.3370    -0.2550 ca         1 6DT      -0.079200
     13 C5          -5.8100    -0.5550     0.9620 ca         1 6DT       0.111800
     14 C23          5.3440     0.4540     0.6640 ca         1 6DT       0.098400
     15 C6          -4.9390     0.2300     0.2620 ca         1 6DT      -0.179200
     16 C12          1.3120    -0.2190    -0.9000 ca         1 6DT       0.326000
     17 C9          -1.3570     0.5280    -0.3620 ca         1 6DT       0.077100
     18 C7          -3.5630     0.1290     0.5530 ca         1 6DT       0.364300
     19 C16          3.8130    -0.3080    -0.6200 cc         1 6DT       0.662700
     20 N27         -5.4440    -1.4200     1.9200 nb         1 6DT      -0.152000
     21 N25         -3.1530    -0.7290     1.5230 nb         1 6DT      -0.255000
     22 N17          5.0060    -0.8300    -1.0740 na         1 6DT      -0.354600
     23 N24          3.9670     0.4790     0.4500 nd         1 6DT      -0.631100
     24 N2          -5.6310     1.0160    -0.6570 na         1 6DT      -0.050700
     25 N15          2.6180    -0.6090    -1.1880 nu         1 6DT      -0.907200
     26 O8          -2.6530     0.9210    -0.1140 os         1 6DT      -0.374400
     27 H1           9.1990    -0.0120     0.7550 ha         1 6DT       0.113000
     28 H2           8.0730     1.4390     2.4500 ha         1 6DT       0.114000
     29 H3           7.8350    -1.1740    -1.0120 ha         1 6DT       0.115000
     30 H4           5.5790     1.7420     2.3940 ha         1 6DT       0.128000
     31 H5           0.4830    -2.1460    -1.4340 ha         1 6DT       0.136000
     32 H6           1.8030     1.8190    -0.3500 ha         1 6DT       0.136000
     33 H7          -1.8650    -1.4930    -0.9740 ha         1 6DT       0.127000
     34 H8          -0.5470     2.4700     0.1300 ha         1 6DT       0.127000
     35 H9          -8.0570    -0.7220     0.8230 ha         1 6DT       0.221000
     36 H10         -7.7680     1.1710    -1.1190 h4         1 6DT       0.215000
     37 H11         -3.7700    -2.1460     2.9250 h5         1 6DT       0.048100
     38 H12         -4.3040     1.4490    -2.2390 h1         1 6DT       0.056033
     39 H13         -5.7900     2.4420    -2.2060 h1         1 6DT       0.056033
     40 H14         -4.4860     2.7500    -1.0220 h1         1 6DT       0.056033
     41 H15          5.1250    -1.4420    -1.8670 hn         1 6DT       0.353000
     42 H17          2.6900    -1.4160    -1.8000 hn         1 6DT       0.495000
     43 C1          -5.0140     1.9730    -1.5880 c3         1 6DT       0.066900
@<TRIPOS>BOND
     1     1     2 ar  
     2     1     3 ar  
     3     1    27 1   
     4     2     4 ar  
     5     2    28 1   
     6     3    12 ar  
     7     3    29 1   
     8     4    14 ar  
     9     4    30 1   
    10     5     7 ar  
    11     5    16 ar  
    12     5    31 1   
    13     6     8 ar  
    14     6    16 ar  
    15     6    32 1   
    16     7    17 ar  
    17     7    33 1   
    18     8    17 ar  
    19     8    34 1   
    20     9    10 2   
    21     9    13 1   
    22     9    35 1   
    23    10    24 1   
    24    10    36 1   
    25    11    20 ar  
    26    11    21 ar  
    27    11    37 1   
    28    12    14 ar  
    29    12    22 1   
    30    13    15 ar  
    31    13    20 ar  
    32    14    23 1   
    33    15    18 ar  
    34    15    24 1   
    35    16    25 1   
    36    17    26 1   
    37    18    21 ar  
    38    18    26 1   
    39    19    22 1   
    40    19    23 2   
    41    19    25 1   
    42    22    41 1   
    43    24    43 1   
    44    25    42 1   
    45    38    43 1   
    46    39    43 1   
    47    40    43 1   
@<TRIPOS>SUBSTRUCTURE
     1 6DT         1 TEMP              0 ****  ****    0 ROOT
