@<TRIPOS>MOLECULE
6DU
   22    22     1     0     0
SMALL
No Charge or Current Charge


@<TRIPOS>ATOM
      1 O          -10.6940   -39.0820   -29.5010 o          1 6DU      -0.722500
      2 C          -10.2820   -37.9280   -29.5110 c          1 6DU       0.714000
      3 CA         -10.3560   -37.0690   -28.1770 c3         1 6DU       0.020500
      4 N          -11.7190   -36.5470   -27.7940 n8         1 6DU      -0.972200
      5 CB          -9.7080   -37.8130   -26.9770 c3         1 6DU      -0.023100
      6 CG          -8.2130   -38.0710   -27.1750 ca         1 6DU      -0.000300
      7 CD1         -7.2390   -37.0690   -26.9400 ca         1 6DU      -0.002900
      8 CD2         -7.7880   -39.3470   -27.6030 ca         1 6DU      -0.082000
      9 Br          -7.7200   -35.3050   -26.3480 br         1 6DU      -0.146100
     10 CE1         -5.8750   -37.3490   -27.1350 ca         1 6DU      -0.100000
     11 CE2         -6.4230   -39.6210   -27.7960 ca         1 6DU      -0.103000
     12 CZ          -5.4660   -38.6220   -27.5620 ca         1 6DU      -0.132000
     13 H4          -9.7480   -36.1740   -28.3630 h1         1 6DU       0.015700
     14 H5         -11.6260   -35.9050   -26.9990 hn         1 6DU       0.364000
     15 H6         -12.0790   -35.9540   -28.5520 hn         1 6DU       0.364000
     16 H8          -9.8630   -37.2350   -26.0590 hc         1 6DU       0.044200
     17 H9         -10.2380   -38.7590   -26.8130 hc         1 6DU       0.044200
     18 H10         -8.5190   -40.1300   -27.7900 ha         1 6DU       0.136000
     19 H11         -5.1310   -36.5760   -26.9530 ha         1 6DU       0.107000
     20 H12         -6.1090   -40.6080   -28.1280 ha         1 6DU       0.102000
     21 H13         -4.4100   -38.8330   -27.7120 ha         1 6DU       0.095000
     22 OXT         -9.8620   -37.3810   -30.5230 o          1 6DU      -0.722500
@<TRIPOS>BOND
     1     1     2 1   
     2     2     3 1   
     3     2    22 1   
     4     3     4 1   
     5     3     5 1   
     6     3    13 1   
     7     4    14 1   
     8     4    15 1   
     9     5     6 1   
    10     5    16 1   
    11     5    17 1   
    12     6     7 ar  
    13     6     8 ar  
    14     7     9 1   
    15     7    10 ar  
    16     8    11 ar  
    17     8    18 1   
    18    10    12 ar  
    19    10    19 1   
    20    11    12 ar  
    21    11    20 1   
    22    12    21 1   
@<TRIPOS>SUBSTRUCTURE
     1 6DU         1 TEMP              0 ****  ****    0 ROOT
