@<TRIPOS>MOLECULE
6DU
   22    22     1     0     0
SMALL
abcg2


@<TRIPOS>ATOM
      1 O          -10.8860   -38.8820   -29.5090 o          1 6DU      -0.722500
      2 C          -10.1900   -37.8500   -29.4380 c          1 6DU       0.714000
      3 CA         -10.3320   -36.9920   -28.1560 c3         1 6DU       0.020500
      4 N          -11.7320   -36.7700   -27.8130 n8         1 6DU      -0.972200
      5 CB          -9.6760   -37.7180   -26.9720 c3         1 6DU      -0.023100
      6 CG          -8.2170   -38.0060   -27.1700 ca         1 6DU      -0.000300
      7 CD1         -7.1980   -37.0770   -26.9610 ca         1 6DU      -0.002900
      8 CD2         -7.8230   -39.2730   -27.6050 ca         1 6DU      -0.082000
      9 BR          -7.6040   -35.3230   -26.3590 br         1 6DU      -0.146100
     10 CE1         -5.8580   -37.3820   -27.1690 ca         1 6DU      -0.100000
     11 CE2         -6.4940   -39.6000   -27.8230 ca         1 6DU      -0.103000
     12 CZ          -5.5060   -38.6510   -27.6030 ca         1 6DU      -0.132000
     13 H4          -9.7910   -36.0520   -28.3290 h1         1 6DU       0.015700
     14 H5         -11.7800   -36.1040   -27.0510 hn         1 6DU       0.364000
     15 H6         -12.2040   -36.3220   -28.5890 hn         1 6DU       0.364000
     16 H8          -9.8290   -37.1310   -26.0610 hc         1 6DU       0.044200
     17 H9         -10.2050   -38.6620   -26.8230 hc         1 6DU       0.044200
     18 H10         -8.5900   -40.0170   -27.7800 ha         1 6DU       0.136000
     19 H11         -5.0900   -36.6410   -26.9930 ha         1 6DU       0.107000
     20 H12         -6.2320   -40.5940   -28.1610 ha         1 6DU       0.102000
     21 H13         -4.4640   -38.8910   -27.7640 ha         1 6DU       0.095000
     22 OXT         -9.3650   -37.4410   -30.2790 o          1 6DU      -0.722500
@<TRIPOS>BOND
     1     1     2 1   
     2     2     3 1   
     3     2    22 1   
     4     3     4 1   
     5     3     5 1   
     6     3    13 1   
     7     4    14 1   
     8     4    15 1   
     9     5     6 1   
    10     5    16 1   
    11     5    17 1   
    12     6     7 ar  
    13     6     8 ar  
    14     7     9 1   
    15     7    10 ar  
    16     8    11 ar  
    17     8    18 1   
    18    10    12 ar  
    19    10    19 1   
    20    11    12 ar  
    21    11    20 1   
    22    12    21 1   
@<TRIPOS>SUBSTRUCTURE
     1 6DU         1 TEMP              0 ****  ****    0 ROOT
