@<TRIPOS>MOLECULE
6DV
   53    57     1     0     0
SMALL
bcc


@<TRIPOS>ATOM
      1 C10          4.6800    -1.1290    -1.3310 c6         1 6DV       0.185800
      2 C13          2.7910    -0.2930     0.5990 c6         1 6DV       0.162800
      3 C15          7.1830     0.2650    -1.2210 ca         1 6DV      -0.128000
      4 C17          9.0670     0.9000     0.0880 ca         1 6DV       0.143900
      5 C20          7.0840     0.1670     1.1450 ca         1 6DV       0.148900
      6 C25         -6.7190    -0.0450     0.1130 cc         1 6DV       0.527300
      7 C23         -4.7480    -0.7120    -0.1490 cd         1 6DV       0.506500
      8 C19          8.3760     0.6340     1.2560 ca         1 6DV      -0.201000
      9 C16          8.4970     0.7120    -1.1520 ca         1 6DV      -0.167000
     10 C12          4.1070     0.4300     0.3930 c6         1 6DV       0.185800
     11 C14          6.4350    -0.0190    -0.0790 ca         1 6DV       0.073600
     12 C02         -3.6290     1.3570     0.1580 cc         1 6DV       0.886400
     13 N03         -2.4900     0.7410    -0.0430 nd         1 6DV      -0.891000
     14 C04         -2.5230    -0.5860    -0.2860 cc         1 6DV       0.982900
     15 N05         -1.3450    -1.1870    -0.4760 nu         1 6DV      -0.856900
     16 C06         -0.0700    -0.5070    -0.5260 c3         1 6DV       0.236800
     17 C09          3.3630    -1.8450    -1.1000 c6         1 6DV       0.162800
     18 F18         10.3300     1.3450     0.1760 f          1 6DV      -0.137900
     19 F21          6.4250    -0.1290     2.2740 f          1 6DV      -0.132900
     20 N22         -3.6110    -1.3560    -0.3500 nd         1 6DV      -0.808000
     21 N24         -5.9910    -1.1570    -0.1440 nc         1 6DV      -0.408300
     22 N26         -6.0440     1.0730     0.2730 nd         1 6DV      -0.599100
     23 N27         -4.7770     0.6360     0.1030 na         1 6DV      -0.203600
     24 C28         -8.1570    -0.1010     0.2010 cc         1 6DV       0.215400
     25 C29         -9.0280    -1.1370     0.0740 cd         1 6DV      -0.204300
     26 C30        -10.3250    -0.5830     0.2590 cd         1 6DV      -0.282300
     27 C31        -10.1380     0.7410     0.4810 cc         1 6DV       0.242600
     28 O32         -8.8280     1.0430     0.4480 os         1 6DV      -0.307800
     29 N1           5.1190    -0.5000    -0.1000 nh         1 6DV      -0.627000
     30 N2           2.3510    -0.9140    -0.6370 n3         1 6DV      -0.722600
     31 H1           5.4270    -1.8560    -1.6550 h1         1 6DV       0.047200
     32 H2           4.5470    -0.4010    -2.1450 h1         1 6DV       0.047200
     33 H3           2.9090    -1.0370     1.4050 h1         1 6DV       0.044200
     34 H4           2.0530     0.4360     0.9380 h1         1 6DV       0.044200
     35 H5           6.7410     0.1340    -2.1990 ha         1 6DV       0.140000
     36 H6           8.8340     0.7670     2.2270 ha         1 6DV       0.168000
     37 H7           9.0550     0.9180    -2.0550 ha         1 6DV       0.154000
     38 H8           3.9630     1.2590    -0.3150 h1         1 6DV       0.047200
     39 H9           4.4200     0.8630     1.3410 h1         1 6DV       0.047200
     40 H10         -4.5910     3.1040     0.5770 hn         1 6DV       0.470800
     41 H11         -2.8650     3.1960     0.4770 hn         1 6DV       0.470800
     42 H12         -1.3830    -2.1630    -0.7230 hn         1 6DV       0.458800
     43 H13          0.0130     0.1100    -1.4250 h1         1 6DV       0.061700
     44 H14          0.0130     0.1610     0.3310 h1         1 6DV       0.061700
     45 H15          0.9680    -2.1730     0.3770 h1         1 6DV       0.040200
     46 H16          0.9150    -2.2000    -1.3830 h1         1 6DV       0.040200
     47 H17          3.0380    -2.2860    -2.0450 h1         1 6DV       0.044200
     48 H18          3.5190    -2.6730    -0.3880 h1         1 6DV       0.044200
     49 H19         -8.7720    -2.1650    -0.1240 ha         1 6DV       0.177000
     50 H20        -11.2700    -1.1010     0.2280 ha         1 6DV       0.162000
     51 H21        -10.8170     1.5560     0.6720 h4         1 6DV       0.053100
     52 C07          1.0500    -1.5390    -0.5220 c3         1 6DV       0.150800
     53 N01         -3.7080     2.6520     0.4070 nv         1 6DV      -0.955500
@<TRIPOS>BOND
     1     1    17 1   
     2     1    29 1   
     3     1    31 1   
     4     1    32 1   
     5     2    10 1   
     6     2    30 1   
     7     2    33 1   
     8     2    34 1   
     9     3     9 ar  
    10     3    11 ar  
    11     3    35 1   
    12     4     8 ar  
    13     4     9 ar  
    14     4    18 1   
    15     5     8 ar  
    16     5    11 ar  
    17     5    19 1   
    18     6    21 1   
    19     6    22 2   
    20     6    24 1   
    21     7    20 1   
    22     7    21 2   
    23     7    23 1   
    24     8    36 1   
    25     9    37 1   
    26    10    29 1   
    27    10    38 1   
    28    10    39 1   
    29    11    29 1   
    30    12    13 2   
    31    12    23 1   
    32    12    53 1   
    33    13    14 1   
    34    14    15 1   
    35    14    20 2   
    36    15    16 1   
    37    15    42 1   
    38    16    43 1   
    39    16    44 1   
    40    16    52 1   
    41    17    30 1   
    42    17    47 1   
    43    17    48 1   
    44    22    23 1   
    45    24    25 2   
    46    24    28 1   
    47    25    26 1   
    48    25    49 1   
    49    26    27 2   
    50    26    50 1   
    51    27    28 1   
    52    27    51 1   
    53    30    52 1   
    54    40    53 1   
    55    41    53 1   
    56    45    52 1   
    57    46    52 1   
@<TRIPOS>SUBSTRUCTURE
     1 6DV         1 TEMP              0 ****  ****    0 ROOT
