@<TRIPOS>MOLECULE
6DV
   53    57     1     0     0
SMALL
No Charge or Current Charge


@<TRIPOS>ATOM
      1 C10          4.7940    -1.1510    -1.4520 c6         1 6DV       0.185800
      2 C13          2.8360     0.0450     0.3590 c6         1 6DV       0.162800
      3 C15          7.5300     0.0450    -1.1740 ca         1 6DV      -0.110000
      4 C17          9.4130     0.4080     0.3250 ca         1 6DV       0.179000
      5 C20          7.1940     0.0370     1.2360 ca         1 6DV       0.184000
      6 C25         -6.9120     0.0280     0.1730 cc         1 6DV       0.527300
      7 C23         -4.8990    -0.4710    -0.0760 cd         1 6DV       0.243500
      8 C19          8.5640     0.2810     1.4320 ca         1 6DV      -0.183000
      9 C16          8.9020     0.2910    -0.9750 ca         1 6DV      -0.149000
     10 C12          4.2510     0.6760     0.1500 c6         1 6DV       0.185800
     11 C14          6.6530    -0.0850    -0.0740 ca         1 6DV       0.212000
     12 C02         -3.8350     1.6350     0.0570 cc         1 6DV       0.623400
     13 N03         -2.6980     0.9880    -0.1040 nd         1 6DV      -0.365000
     14 C04         -2.7030    -0.3340    -0.2500 cc         1 6DV       0.456900
     15 N05         -1.4890    -0.9370    -0.4180 nu         1 6DV      -0.912100
     16 C06         -0.1610    -0.2790    -0.4790 c3         1 6DV       0.236800
     17 C09          3.3720    -1.7520    -1.2120 c6         1 6DV       0.162800
     18 F18         10.7290     0.6430     0.5120 f          1 6DV      -0.173000
     19 F21          6.4040    -0.1000     2.3290 f          1 6DV      -0.168000
     20 N22         -3.7320    -1.1760    -0.2560 nd         1 6DV      -0.282000
     21 N24         -6.0750    -1.0390    -0.0270 nc         1 6DV      -0.408300
     22 N26         -6.3280     1.2270     0.2530 nd         1 6DV      -0.599100
     23 N27         -5.0020     0.8810     0.0820 na         1 6DV      -0.203600
     24 C28         -8.3390    -0.1920     0.2860 cc         1 6DV       0.105700
     25 C29         -8.9890    -1.3970     0.2120 cd         1 6DV      -0.121000
     26 C30        -10.3620    -1.1180     0.3760 cd         1 6DV      -0.199000
     27 C31        -10.4910     0.2360     0.5410 cc         1 6DV       0.132900
     28 O32         -9.2470     0.8280     0.4890 os         1 6DV      -0.219000
     29 N1           5.2670    -0.3300    -0.2920 nh         1 6DV      -0.765400
     30 N2           2.3550    -0.7180    -0.8390 n3         1 6DV      -0.722600
     31 H1           5.4930    -1.9790    -1.6420 h1         1 6DV       0.047200
     32 H2           4.7640    -0.5300    -2.3600 h1         1 6DV       0.047200
     33 H3           2.8790    -0.6190     1.2350 h1         1 6DV       0.044200
     34 H4           2.1400     0.8580     0.6080 h1         1 6DV       0.044200
     35 H5           7.1510    -0.0320    -2.1890 ha         1 6DV       0.122000
     36 H6           8.9640     0.3680     2.4370 ha         1 6DV       0.150000
     37 H7           9.5690     0.3920    -1.8280 ha         1 6DV       0.136000
     38 H8           4.1720     1.4720    -0.6040 h1         1 6DV       0.047200
     39 H9           4.5590     1.1550     1.0900 h1         1 6DV       0.047200
     40 H10         -4.7940     3.2980     0.5820 hn         1 6DV       0.526000
     41 H11         -3.0780     3.4250     0.5930 hn         1 6DV       0.526000
     42 H12         -1.5380    -1.9490    -0.5360 hn         1 6DV       0.514000
     43 H13         -0.1370     0.4360    -1.3130 h1         1 6DV       0.061700
     44 H14          0.0100     0.2860     0.4470 h1         1 6DV       0.061700
     45 H15          0.9920    -1.9930     0.1810 h1         1 6DV       0.040200
     46 H16          0.7550    -1.8990    -1.5650 h1         1 6DV       0.040200
     47 H17          3.0610    -2.2790    -2.1260 h1         1 6DV       0.044200
     48 H18          3.4460    -2.5090    -0.4180 h1         1 6DV       0.044200
     49 H19         -8.5330    -2.3710     0.0580 ha         1 6DV       0.159000
     50 H20        -11.1750    -1.8380     0.3730 ha         1 6DV       0.144000
     51 H21        -11.3520     0.8730     0.6960 h4         1 6DV       0.053100
     52 C07          0.9950    -1.3030    -0.6730 c3         1 6DV       0.150800
     53 N01         -3.9040     2.9700     0.2200 nv         1 6DV      -1.065900
@<TRIPOS>BOND
     1     1    17 1   
     2     1    29 1   
     3     1    31 1   
     4     1    32 1   
     5     2    10 1   
     6     2    30 1   
     7     2    33 1   
     8     2    34 1   
     9     3     9 ar  
    10     3    11 ar  
    11     3    35 1   
    12     4     8 ar  
    13     4     9 ar  
    14     4    18 1   
    15     5     8 ar  
    16     5    11 ar  
    17     5    19 1   
    18     6    21 1   
    19     6    22 2   
    20     6    24 1   
    21     7    20 1   
    22     7    21 2   
    23     7    23 1   
    24     8    36 1   
    25     9    37 1   
    26    10    29 1   
    27    10    38 1   
    28    10    39 1   
    29    11    29 1   
    30    12    13 2   
    31    12    23 1   
    32    12    53 1   
    33    13    14 1   
    34    14    15 1   
    35    14    20 2   
    36    15    16 1   
    37    15    42 1   
    38    16    43 1   
    39    16    44 1   
    40    16    52 1   
    41    17    30 1   
    42    17    47 1   
    43    17    48 1   
    44    22    23 1   
    45    24    25 2   
    46    24    28 1   
    47    25    26 1   
    48    25    49 1   
    49    26    27 2   
    50    26    50 1   
    51    27    28 1   
    52    27    51 1   
    53    30    52 1   
    54    40    53 1   
    55    41    53 1   
    56    45    52 1   
    57    46    52 1   
@<TRIPOS>SUBSTRUCTURE
     1 6DV         1 TEMP              0 ****  ****    0 ROOT
