@<TRIPOS>MOLECULE
6DW
   64    70     1     0     0
SMALL
abcg2


@<TRIPOS>ATOM
      1 C12         10.9070     1.1780   -20.5380 ca         1 6DW      -0.115000
      2 C34         -2.2130    -7.5050   -24.5000 ca         1 6DW      -0.127000
      3 C35         -1.6400    -7.4570   -25.7750 ca         1 6DW      -0.104000
      4 C11          9.5400     1.2060   -20.2840 ca         1 6DW      -0.106000
      5 C13         11.7090     0.2350   -19.9040 ca         1 6DW      -0.106000
      6 C33         -1.6270    -6.8540   -23.4130 ca         1 6DW      -0.063000
      7 C36         -0.4550    -6.7570   -26.0110 ca         1 6DW      -0.113000
      8 C10          8.9740     0.3040   -19.3920 ca         1 6DW      -0.101000
      9 C14         11.1510    -0.6800   -19.0190 ca         1 6DW      -0.101000
     10 C5           7.8780    -2.8650   -16.6880 cc         1 6DW      -0.182000
     11 C6           8.9800    -2.4650   -15.9150 cc         1 6DW       0.240900
     12 C32         -0.4510    -6.1450   -23.6240 ca         1 6DW       0.093400
     13 C37          0.1210    -6.1140   -24.9280 ca         1 6DW      -0.053200
     14 C9           9.7840    -0.6370   -18.7650 ca         1 6DW       0.025800
     15 C4           8.0640    -2.2640   -17.9190 cd         1 6DW      -0.146900
     16 C30          1.3090    -4.9590   -23.4710 cc         1 6DW       0.618700
     17 C21          6.0210    -2.7740   -21.5050 cc         1 6DW      -0.105000
     18 C3           7.2970    -2.4160   -19.1610 cd         1 6DW       0.309900
     19 C22          5.2420    -2.4190   -20.4400 cd         1 6DW      -0.031100
     20 C2           5.8560    -2.2140   -19.1450 c          1 6DW       0.471000
     21 C19          9.8570    -2.1260   -24.1220 cx         1 6DW      -0.114400
     22 C20          9.7350    -1.2380   -22.9120 cx         1 6DW      -0.114400
     23 C28          2.3100    -4.7340   -25.5700 c5         1 6DW       0.084600
     24 C27          3.2390    -4.2020   -24.4530 c5         1 6DW       0.184800
     25 C18          8.5710    -2.0840   -23.3430 cx         1 6DW      -0.170700
     26 C25          2.9310    -3.9130   -21.9480 c3         1 6DW       0.191800
     27 C24          3.2070    -2.4300   -21.7150 c3         1 6DW       0.145600
     28 N7           9.7880    -1.6600   -16.5980 nd         1 6DW      -0.505800
     29 N31          0.3260    -5.4040   -22.7240 nd         1 6DW      -0.606100
     30 N15          7.9910    -2.7640   -20.2240 nc         1 6DW      -0.355400
     31 N29          1.2730    -5.3670   -24.7710 na         1 6DW      -0.233600
     32 N8           9.2220    -1.5410   -17.8230 na         1 6DW       0.216000
     33 N26          2.3620    -4.1190   -23.2650 nh         1 6DW      -0.730600
     34 N16          7.3590    -2.9400   -21.3630 na         1 6DW      -0.287500
     35 O1           5.2150    -1.8910   -18.1310 o          1 6DW      -0.515100
     36 O23          3.9090    -2.2250   -20.4810 os         1 6DW      -0.300100
     37 H1          11.3450     1.8840   -21.2320 ha         1 6DW       0.115000
     38 H3          -2.1220    -7.9710   -26.5960 ha         1 6DW       0.113000
     39 H4           8.9100     1.9380   -20.7740 ha         1 6DW       0.117000
     40 H5          12.7730     0.2030   -20.1030 ha         1 6DW       0.117000
     41 H6          -2.0780    -6.8940   -22.4290 ha         1 6DW       0.130000
     42 H7          -0.0080    -6.7190   -26.9950 ha         1 6DW       0.115000
     43 H8           7.9150     0.3370   -19.1730 ha         1 6DW       0.133000
     44 H9          11.7630    -1.4210   -18.5250 ha         1 6DW       0.133000
     45 H10          7.0710    -3.5200   -16.4100 ha         1 6DW       0.155000
     46 H11          9.2160    -2.7250   -14.8950 h4         1 6DW       0.040100
     47 H12          5.6430    -2.9520   -22.4980 h4         1 6DW       0.205000
     48 H13          9.8680    -1.6650   -25.1000 hc         1 6DW       0.079450
     49 H14         10.4640    -3.0180   -24.0340 hc         1 6DW       0.079450
     50 H15         10.2600    -1.5300   -22.0130 hc         1 6DW       0.079450
     51 H16          9.6660    -0.1710   -23.0640 hc         1 6DW       0.079450
     52 H17          2.8140    -5.4430   -26.2230 h1         1 6DW       0.065200
     53 H18          4.0560    -4.9040   -24.2560 h1         1 6DW       0.053200
     54 H19          7.7370    -1.5710   -23.8070 hc         1 6DW       0.081700
     55 H22          2.2190    -4.2700   -21.2060 h1         1 6DW       0.069200
     56 H23          3.8500    -4.4980   -21.8400 h1         1 6DW       0.069200
     57 H24          3.7600    -1.9860   -22.5440 h1         1 6DW       0.064700
     58 H25          2.2700    -1.8880   -21.6030 h1         1 6DW       0.064700
     59 H26          1.8900    -3.9250   -26.1710 h1         1 6DW       0.065200
     60 H27          3.6600    -3.2300   -24.7000 h1         1 6DW       0.053200
     61 C17          8.1900    -3.2910   -22.5310 c3         1 6DW       0.272800
     62 H2          -3.1320    -8.0590   -24.3540 ha         1 6DW       0.114000
     63 H20          7.6200    -4.0040   -23.1270 h1         1 6DW       0.070200
     64 H21          9.0720    -3.7910   -22.1380 h1         1 6DW       0.070200
@<TRIPOS>BOND
     1     1     4 ar  
     2     1     5 ar  
     3     1    37 1   
     4     2     3 ar  
     5     2     6 ar  
     6     2    62 1   
     7     3     7 ar  
     8     3    38 1   
     9     4     8 ar  
    10     4    39 1   
    11     5     9 ar  
    12     5    40 1   
    13     6    12 ar  
    14     6    41 1   
    15     7    13 ar  
    16     7    42 1   
    17     8    14 ar  
    18     8    43 1   
    19     9    14 ar  
    20     9    44 1   
    21    10    11 1   
    22    10    15 2   
    23    10    45 1   
    24    11    28 2   
    25    11    46 1   
    26    12    13 ar  
    27    12    29 1   
    28    13    31 1   
    29    14    32 1   
    30    15    18 1   
    31    15    32 1   
    32    16    29 2   
    33    16    31 1   
    34    16    33 1   
    35    17    19 2   
    36    17    34 1   
    37    17    47 1   
    38    18    20 1   
    39    18    30 2   
    40    19    20 1   
    41    19    36 1   
    42    20    35 2   
    43    21    22 1   
    44    21    25 1   
    45    21    48 1   
    46    21    49 1   
    47    22    25 1   
    48    22    50 1   
    49    22    51 1   
    50    23    24 1   
    51    23    31 1   
    52    23    52 1   
    53    23    59 1   
    54    24    33 1   
    55    24    53 1   
    56    24    60 1   
    57    25    54 1   
    58    25    61 1   
    59    26    27 1   
    60    26    33 1   
    61    26    55 1   
    62    26    56 1   
    63    27    36 1   
    64    27    57 1   
    65    27    58 1   
    66    28    32 1   
    67    30    34 1   
    68    34    61 1   
    69    61    63 1   
    70    61    64 1   
@<TRIPOS>SUBSTRUCTURE
     1 6DW         1 TEMP              0 ****  ****    0 ROOT
