@<TRIPOS>MOLECULE
6DW
   64    70     1     0     0
SMALL
No Charge or Current Charge


@<TRIPOS>ATOM
      1 C12         11.8920    -1.0580   -20.7700 ca         1 6DW      -0.115000
      2 C34         -2.3430    -7.2220   -24.2910 ca         1 6DW      -0.127000
      3 C35         -1.7520    -7.6340   -25.5110 ca         1 6DW      -0.104000
      4 C11         11.2490     0.0750   -20.2450 ca         1 6DW      -0.106000
      5 C13         11.6460    -2.3260   -20.2160 ca         1 6DW      -0.106000
      6 C33         -1.6350    -6.3940   -23.3890 ca         1 6DW      -0.063000
      7 C36         -0.4440    -7.2210   -25.8440 ca         1 6DW      -0.113000
      8 C10         10.3520    -0.0590   -19.1700 ca         1 6DW      -0.101000
      9 C14         10.7520    -2.4620   -19.1390 ca         1 6DW      -0.101000
     10 C5           7.3200    -1.8160   -16.5210 cc         1 6DW      -0.182000
     11 C6           8.3850    -1.5760   -15.6330 cc         1 6DW       0.240900
     12 C32         -0.3370    -5.9910   -23.7360 ca         1 6DW       0.093400
     13 C37          0.2200    -6.4030   -24.9230 ca         1 6DW      -0.053200
     14 C9          10.0920    -1.3300   -18.6190 ca         1 6DW       0.025800
     15 C4           7.8300    -1.7490   -17.7910 cd         1 6DW      -0.146900
     16 C30          1.6130    -5.1510   -23.8050 cc         1 6DW       0.618700
     17 C21          5.8350    -2.2400   -21.5900 cc         1 6DW      -0.105000
     18 C3           7.0830    -1.9310   -19.0460 cd         1 6DW       0.309900
     19 C22          5.0720    -2.3770   -20.4470 cd         1 6DW      -0.031100
     20 C2           5.6210    -2.2360   -19.0880 c          1 6DW       0.471000
     21 C19          9.1440     0.2480   -23.9100 cx         1 6DW      -0.114400
     22 C20          8.4070     0.8420   -22.7320 cx         1 6DW      -0.114400
     23 C28          2.6860    -6.0780   -25.6400 c5         1 6DW       0.084600
     24 C27          3.7380    -5.3180   -24.7300 c5         1 6DW       0.184800
     25 C18          7.9480    -0.4710   -23.3260 cx         1 6DW      -0.170700
     26 C25          3.4350    -4.3870   -22.2700 c3         1 6DW       0.191800
     27 C24          3.0650    -2.9550   -21.8110 c3         1 6DW       0.145600
     28 N7           9.5460    -1.3590   -16.2190 nd         1 6DW      -0.505800
     29 N31          0.5510    -5.1980   -22.9920 nd         1 6DW      -0.606100
     30 N15          7.8120    -1.8030   -20.1600 nc         1 6DW      -0.355400
     31 N29          1.4520    -5.8380   -24.9530 na         1 6DW      -0.233600
     32 N8           9.1970    -1.4650   -17.5540 na         1 6DW       0.216000
     33 N26          2.8960    -4.7430   -23.5980 nh         1 6DW      -0.730600
     34 N16          7.2010    -1.9570   -21.4020 na         1 6DW      -0.287500
     35 O1           4.9000    -2.3690   -18.0990 o          1 6DW      -0.515100
     36 O23          3.7210    -2.6670   -20.5540 os         1 6DW      -0.300100
     37 H1          12.5840    -0.9540   -21.6040 ha         1 6DW       0.115000
     38 H3          -2.3080    -8.2700   -26.1950 ha         1 6DW       0.113000
     39 H4          11.4430     1.0570   -20.6710 ha         1 6DW       0.117000
     40 H5          12.1470    -3.2030   -20.6200 ha         1 6DW       0.117000
     41 H6          -2.0810    -6.0790   -22.4490 ha         1 6DW       0.130000
     42 H7           0.0260    -7.5240   -26.7760 ha         1 6DW       0.115000
     43 H8           9.8520     0.8190   -18.7680 ha         1 6DW       0.133000
     44 H9          10.5620    -3.4450   -18.7140 ha         1 6DW       0.133000
     45 H10          6.3060    -2.0110   -16.1930 ha         1 6DW       0.155000
     46 H11          8.3380    -1.5550   -14.5530 h4         1 6DW       0.040100
     47 H12          5.4890    -2.3220   -22.6140 h4         1 6DW       0.205000
     48 H13          9.0240     0.7290   -24.8780 hc         1 6DW       0.079450
     49 H14         10.1340    -0.1650   -23.7290 hc         1 6DW       0.079450
     50 H15          8.8940     0.8170   -21.7600 hc         1 6DW       0.079450
     51 H16          7.7920     1.7210   -22.9070 hc         1 6DW       0.079450
     52 H17          2.8980    -7.1530   -25.6960 h1         1 6DW       0.065200
     53 H18          4.5040    -6.0080   -24.3510 h1         1 6DW       0.053200
     54 H19          7.0240    -0.4420   -23.8990 hc         1 6DW       0.081700
     55 H22          3.0610    -5.0970   -21.5190 h1         1 6DW       0.069200
     56 H23          4.5270    -4.4900   -22.2840 h1         1 6DW       0.069200
     57 H24          3.3250    -2.2200   -22.5820 h1         1 6DW       0.064700
     58 H25          1.9770    -2.9120   -21.6780 h1         1 6DW       0.064700
     59 H26          2.6530    -5.6670   -26.6570 h1         1 6DW       0.065200
     60 H27          4.2460    -4.5220   -25.2920 h1         1 6DW       0.053200
     61 C17          8.1120    -1.7820   -22.5600 c3         1 6DW       0.272800
     62 H2          -3.3510    -7.5470   -24.0440 ha         1 6DW       0.114000
     63 H20          7.9530    -2.6180   -23.2540 h1         1 6DW       0.070200
     64 H21          9.1490    -1.8610   -22.2090 h1         1 6DW       0.070200
@<TRIPOS>BOND
     1     1     4 ar  
     2     1     5 ar  
     3     1    37 1   
     4     2     3 ar  
     5     2     6 ar  
     6     2    62 1   
     7     3     7 ar  
     8     3    38 1   
     9     4     8 ar  
    10     4    39 1   
    11     5     9 ar  
    12     5    40 1   
    13     6    12 ar  
    14     6    41 1   
    15     7    13 ar  
    16     7    42 1   
    17     8    14 ar  
    18     8    43 1   
    19     9    14 ar  
    20     9    44 1   
    21    10    11 1   
    22    10    15 2   
    23    10    45 1   
    24    11    28 2   
    25    11    46 1   
    26    12    13 ar  
    27    12    29 1   
    28    13    31 1   
    29    14    32 1   
    30    15    18 1   
    31    15    32 1   
    32    16    29 2   
    33    16    31 1   
    34    16    33 1   
    35    17    19 2   
    36    17    34 1   
    37    17    47 1   
    38    18    20 1   
    39    18    30 2   
    40    19    20 1   
    41    19    36 1   
    42    20    35 2   
    43    21    22 1   
    44    21    25 1   
    45    21    48 1   
    46    21    49 1   
    47    22    25 1   
    48    22    50 1   
    49    22    51 1   
    50    23    24 1   
    51    23    31 1   
    52    23    52 1   
    53    23    59 1   
    54    24    33 1   
    55    24    53 1   
    56    24    60 1   
    57    25    54 1   
    58    25    61 1   
    59    26    27 1   
    60    26    33 1   
    61    26    55 1   
    62    26    56 1   
    63    27    36 1   
    64    27    57 1   
    65    27    58 1   
    66    28    32 1   
    67    30    34 1   
    68    34    61 1   
    69    61    63 1   
    70    61    64 1   
@<TRIPOS>SUBSTRUCTURE
     1 6DW         1 TEMP              0 ****  ****    0 ROOT
