@<TRIPOS>MOLECULE
6DX
   56    60     1     0     0
SMALL
No Charge or Current Charge


@<TRIPOS>ATOM
      1 C10        -21.3870    14.5970    13.7560 c6         1 6DX       0.128300
      2 C13        -18.8060    13.5860    14.6720 c6         1 6DX       0.198300
      3 C15        -17.7580    15.8190    14.1300 ca         1 6DX       0.302000
      4 C17        -15.4360    16.1920    13.4550 ca         1 6DX      -0.077000
      5 C20        -17.7620    17.0890    14.7440 ca         1 6DX      -0.170500
      6 C22        -21.1530     6.9290    17.9340 cc         1 6DX       0.246500
      7 C24        -19.8670     5.3510    18.6060 cd         1 6DX       0.529300
      8 C18        -15.4520    17.4530    14.0720 ca         1 6DX      -0.149000
      9 C19        -16.6150    17.9020    14.7170 ca         1 6DX      -0.077000
     10 C16        -16.5840    15.3820    13.4860 ca         1 6DX      -0.170500
     11 C14        -19.9460    12.6610    14.1350 c6         1 6DX       0.128300
     12 C11        -20.2790    15.5610    14.2890 c6         1 6DX       0.198300
     13 C02        -19.5360     8.4880    17.2580 cc         1 6DX       0.618400
     14 N03        -20.4830     9.3500    16.9210 nd         1 6DX      -0.358000
     15 C04        -21.7960     8.9170    17.1090 cd         1 6DX       0.448900
     16 N05        -22.7840     9.7860    16.7570 nu         1 6DX      -0.905100
     17 C06        -22.6380    11.1180    16.1350 c3         1 6DX       0.234800
     18 C07        -22.5170    10.9890    14.6040 c3         1 6DX      -0.100400
     19 N09        -21.3150    13.2300    14.3580 n3         1 6DX      -0.723600
     20 N12        -18.9020    14.9860    14.1470 nh         1 6DX      -0.792400
     21 N21        -22.1820     7.7460    17.6000 nc         1 6DX      -0.280000
     22 N23        -21.2050     5.7220    18.4510 nd         1 6DX      -0.411300
     23 N25        -18.9870     6.2770    18.2060 nc         1 6DX      -0.595100
     24 N26        -19.8540     7.2400    17.7870 na         1 6DX      -0.213600
     25 C27        -19.4520     4.0760    19.1540 cd         1 6DX       0.108700
     26 C28        -20.3250     3.1070    19.5730 cc         1 6DX      -0.117000
     27 C29        -19.5190     2.0450    20.0280 cc         1 6DX      -0.196000
     28 C30        -18.2160     2.4350    19.8560 cd         1 6DX       0.138900
     29 O31        -18.1340     3.6990    19.3120 os         1 6DX      -0.233000
     30 H1         -21.2900    14.5300    12.6620 h1         1 6DX       0.042950
     31 H2         -22.3680    15.0510    13.9610 h1         1 6DX       0.042950
     32 H3         -18.8590    13.6010    15.7710 h1         1 6DX       0.060200
     33 H4         -17.8420    13.1300    14.4050 h1         1 6DX       0.060200
     34 H5         -14.5360    15.8430    12.9520 ha         1 6DX       0.109000
     35 H6         -18.6480    17.4510    15.2570 ha         1 6DX       0.109500
     36 H7         -14.5640    18.0810    14.0500 ha         1 6DX       0.115000
     37 H8         -16.6280    18.8790    15.1970 ha         1 6DX       0.109000
     38 H9         -16.5650    14.4140    12.9940 ha         1 6DX       0.109500
     39 H10        -19.8440    11.6860    14.6310 h1         1 6DX       0.042950
     40 H11        -19.7800    12.4930    13.0610 h1         1 6DX       0.042950
     41 H12        -20.3570    16.5100    13.7370 h1         1 6DX       0.060200
     42 H13        -20.4850    15.7800    15.3480 h1         1 6DX       0.060200
     43 H14        -18.0090     9.7930    17.1770 hn         1 6DX       0.526000
     44 H15        -17.6080     8.1790    17.6210 hn         1 6DX       0.526000
     45 H16        -23.7290     9.4310    16.9120 hn         1 6DX       0.511000
     46 H17        -21.7540    11.6380    16.5320 h1         1 6DX       0.070700
     47 H18        -23.5120    11.7410    16.3720 h1         1 6DX       0.070700
     48 H19        -23.3970    10.4610    14.2180 hc         1 6DX       0.049200
     49 H20        -21.6490    10.3700    14.3510 hc         1 6DX       0.049200
     50 H21        -22.3110    12.1700    12.8080 h1         1 6DX       0.034700
     51 H22        -23.3740    12.8700    14.0280 h1         1 6DX       0.034700
     52 H24        -21.4110     3.1370    19.5630 ha         1 6DX       0.158000
     53 H25        -19.8720     1.1020    20.4350 ha         1 6DX       0.144000
     54 H26        -17.2880     1.9220    20.0750 h4         1 6DX       0.053100
     55 C08        -22.4150    12.3530    13.8860 c3         1 6DX       0.172800
     56 N01        -18.2350     8.8060    17.1240 nv         1 6DX      -1.070900
@<TRIPOS>BOND
     1     1    12 1   
     2     1    19 1   
     3     1    30 1   
     4     1    31 1   
     5     2    11 1   
     6     2    20 1   
     7     2    32 1   
     8     2    33 1   
     9     3     5 ar  
    10     3    10 ar  
    11     3    20 1   
    12     4     8 ar  
    13     4    10 ar  
    14     4    34 1   
    15     5     9 ar  
    16     5    35 1   
    17     6    21 1   
    18     6    22 2   
    19     6    24 1   
    20     7    22 1   
    21     7    23 2   
    22     7    25 1   
    23     8     9 ar  
    24     8    36 1   
    25     9    37 1   
    26    10    38 1   
    27    11    19 1   
    28    11    39 1   
    29    11    40 1   
    30    12    20 1   
    31    12    41 1   
    32    12    42 1   
    33    13    14 2   
    34    13    24 1   
    35    13    56 1   
    36    14    15 1   
    37    15    16 1   
    38    15    21 2   
    39    16    17 1   
    40    16    45 1   
    41    17    18 1   
    42    17    46 1   
    43    17    47 1   
    44    18    48 1   
    45    18    49 1   
    46    18    55 1   
    47    19    55 1   
    48    23    24 1   
    49    25    26 2   
    50    25    29 1   
    51    26    27 1   
    52    26    52 1   
    53    27    28 2   
    54    27    53 1   
    55    28    29 1   
    56    28    54 1   
    57    43    56 1   
    58    44    56 1   
    59    50    55 1   
    60    51    55 1   
@<TRIPOS>SUBSTRUCTURE
     1 6DX         1 TEMP              0 ****  ****    0 ROOT
