@<TRIPOS>MOLECULE
6DX
   56    60     1     0     0
SMALL
abcg2


@<TRIPOS>ATOM
      1 C10        -21.0020    14.7160    14.6310 c6         1 6DX       0.128300
      2 C13        -18.8240    13.2980    15.7400 c6         1 6DX       0.198300
      3 C15        -17.7810    15.2550    14.6390 ca         1 6DX       0.302000
      4 C17        -15.8950    14.9850    13.1190 ca         1 6DX      -0.077000
      5 C20        -17.6870    16.6440    14.4200 ca         1 6DX      -0.170500
      6 C22        -21.2950     7.0890    17.4320 cc         1 6DX       0.246500
      7 C24        -19.8840     5.7510    18.2820 cd         1 6DX       0.529300
      8 C18        -15.8150    16.3570    12.9130 ca         1 6DX      -0.149000
      9 C19        -16.7260    17.1770    13.5750 ca         1 6DX      -0.077000
     10 C16        -16.8600    14.4370    13.9570 ca         1 6DX      -0.170500
     11 C14        -19.7760    12.6490    14.7430 c6         1 6DX       0.128300
     12 C11        -20.0430    15.3450    15.6360 c6         1 6DX       0.198300
     13 C02        -19.9810     9.0810    17.4790 cc         1 6DX       0.618400
     14 N03        -20.9890     9.7290    16.9350 nd         1 6DX      -0.358000
     15 C04        -22.1220     9.0340    16.6560 cd         1 6DX       0.448900
     16 N05        -23.1400     9.7230    16.1140 nu         1 6DX      -0.905100
     17 C06        -23.0440    11.1010    15.6600 c3         1 6DX       0.234800
     18 C07        -22.4200    11.2300    14.2690 c3         1 6DX      -0.100400
     19 N09        -21.0980    13.2720    14.8340 n3         1 6DX      -0.723600
     20 N12        -18.7130    14.7390    15.5410 nh         1 6DX      -0.792400
     21 N21        -22.3250     7.7220    16.8820 nc         1 6DX      -0.280000
     22 N23        -21.1530     5.8120    17.7770 nd         1 6DX      -0.411300
     23 N25        -19.2030     6.8910    18.2860 nc         1 6DX      -0.595100
     24 N26        -20.1180     7.7510    17.7380 na         1 6DX      -0.213600
     25 C27        -19.3310     4.5130    18.7730 cd         1 6DX       0.108700
     26 C28        -19.8430     3.2500    18.8490 cc         1 6DX      -0.117000
     27 C29        -18.8240     2.4350    19.4260 cc         1 6DX      -0.196000
     28 C30        -17.7670     3.2550    19.6620 cd         1 6DX       0.138900
     29 O31        -18.0570     4.5260    19.2700 os         1 6DX      -0.233000
     30 H1         -20.6580    14.9530    13.6080 h1         1 6DX       0.042950
     31 H2         -21.9960    15.1510    14.7540 h1         1 6DX       0.042950
     32 H3         -19.2170    13.1390    16.7480 h1         1 6DX       0.060200
     33 H4         -17.8440    12.8290    15.7010 h1         1 6DX       0.060200
     34 H5         -15.2060    14.3190    12.6130 ha         1 6DX       0.109000
     35 H6         -18.3570    17.3200    14.9310 ha         1 6DX       0.109500
     36 H7         -15.0660    16.7770    12.2550 ha         1 6DX       0.115000
     37 H8         -16.6860    18.2510    13.4390 ha         1 6DX       0.109000
     38 H9         -16.8950    13.3640    14.0630 ha         1 6DX       0.109500
     39 H10        -19.8590    11.5890    14.9770 h1         1 6DX       0.042950
     40 H11        -19.3700    12.7390    13.7200 h1         1 6DX       0.042950
     41 H12        -19.9930    16.4170    15.4790 h1         1 6DX       0.060200
     42 H13        -20.4180    15.1750    16.6490 h1         1 6DX       0.060200
     43 H14        -18.7120    10.6530    17.6020 hn         1 6DX       0.526000
     44 H15        -18.0780     9.1430    18.1980 hn         1 6DX       0.526000
     45 H16        -23.9380     9.1750    15.8340 hn         1 6DX       0.511000
     46 H17        -22.4510    11.6600    16.3790 h1         1 6DX       0.070700
     47 H18        -24.0520    11.5180    15.6630 h1         1 6DX       0.070700
     48 H19        -23.1160    10.8490    13.5170 hc         1 6DX       0.049200
     49 H20        -21.5320    10.5970    14.2190 hc         1 6DX       0.049200
     50 H21        -21.7040    12.7140    12.8780 h1         1 6DX       0.034700
     51 H22        -22.9740    13.2830    13.9630 h1         1 6DX       0.034700
     52 H24        -20.8250     2.9460    18.5290 ha         1 6DX       0.158000
     53 H25        -18.8740     1.3790    19.6360 ha         1 6DX       0.144000
     54 H26        -16.7870     3.1030    20.0810 h4         1 6DX       0.053100
     55 C08        -22.0680    12.6720    13.9200 c3         1 6DX       0.172800
     56 N01        -18.8300     9.6710    17.7870 nv         1 6DX      -1.070900
@<TRIPOS>BOND
     1     1    12 1   
     2     1    19 1   
     3     1    30 1   
     4     1    31 1   
     5     2    11 1   
     6     2    20 1   
     7     2    32 1   
     8     2    33 1   
     9     3     5 ar  
    10     3    10 ar  
    11     3    20 1   
    12     4     8 ar  
    13     4    10 ar  
    14     4    34 1   
    15     5     9 ar  
    16     5    35 1   
    17     6    21 1   
    18     6    22 2   
    19     6    24 1   
    20     7    22 1   
    21     7    23 2   
    22     7    25 1   
    23     8     9 ar  
    24     8    36 1   
    25     9    37 1   
    26    10    38 1   
    27    11    19 1   
    28    11    39 1   
    29    11    40 1   
    30    12    20 1   
    31    12    41 1   
    32    12    42 1   
    33    13    14 2   
    34    13    24 1   
    35    13    56 1   
    36    14    15 1   
    37    15    16 1   
    38    15    21 2   
    39    16    17 1   
    40    16    45 1   
    41    17    18 1   
    42    17    46 1   
    43    17    47 1   
    44    18    48 1   
    45    18    49 1   
    46    18    55 1   
    47    19    55 1   
    48    23    24 1   
    49    25    26 2   
    50    25    29 1   
    51    26    27 1   
    52    26    52 1   
    53    27    28 2   
    54    27    53 1   
    55    28    29 1   
    56    28    54 1   
    57    43    56 1   
    58    44    56 1   
    59    50    55 1   
    60    51    55 1   
@<TRIPOS>SUBSTRUCTURE
     1 6DX         1 TEMP              0 ****  ****    0 ROOT
