@<TRIPOS>MOLECULE
6DY
   54    58     1     0     0
SMALL
No Charge or Current Charge


@<TRIPOS>ATOM
      1 C10          5.0050    -0.5300     0.7010 c6         1 6DY      -0.070400
      2 C13          4.2360     2.0070    -0.5530 c6         1 6DY       0.170800
      3 C15          8.5370     0.2400     1.0710 ca         1 6DY      -0.106000
      4 C17         10.0390    -1.2150    -0.1760 ca         1 6DY      -0.111000
      5 C21         -4.1020     0.6340    -0.0200 cc         1 6DY       0.244500
      6 C23         -6.1460    -0.0090     0.0310 cd         1 6DY       0.526300
      7 C18          8.9900    -1.5430    -1.0510 ca         1 6DY      -0.110000
      8 C19          7.7150    -0.9800    -0.8650 ca         1 6DY      -0.106000
      9 C16          9.8110    -0.3230     0.8850 ca         1 6DY      -0.110000
     10 C12          5.6410     1.4050    -0.7920 c6         1 6DY      -0.070400
     11 C14          7.4780    -0.0830     0.1980 ca         1 6DY      -0.075300
     12 C11          6.0890     0.5390     0.4120 c6         1 6DY      -0.016400
     13 C02         -3.0330    -1.4510     0.0970 cc         1 6DY       0.622400
     14 N03         -1.8470    -0.8670     0.0270 nd         1 6DY      -0.363000
     15 C04         -1.8600     0.5250    -0.0540 cd         1 6DY       0.456900
     16 N05         -0.6470     1.1370    -0.1170 nu         1 6DY      -0.912100
     17 C06          0.6860     0.4860    -0.1120 c3         1 6DY       0.236800
     18 N08          3.2210     0.9510    -0.2790 n3         1 6DY      -0.727600
     19 C09          3.6140     0.1200     0.8980 c6         1 6DY       0.170800
     20 N20         -2.9290     1.3110    -0.0790 nc         1 6DY      -0.284000
     21 N22         -5.3230     1.1180    -0.0400 nd         1 6DY      -0.410300
     22 N24         -5.4860    -1.1720     0.0940 nc         1 6DY      -0.599100
     23 N25         -4.2080    -0.7020     0.0650 na         1 6DY      -0.203600
     24 C26         -7.5920     0.0600     0.0350 cd         1 6DY       0.106700
     25 C27         -8.3000     1.2310    -0.0280 cc         1 6DY      -0.122000
     26 C28         -9.6570     0.8520     0.0010 cc         1 6DY      -0.198000
     27 C29         -9.6850    -0.5160     0.0800 cd         1 6DY       0.131900
     28 O30         -8.4130    -1.0480     0.1040 os         1 6DY      -0.219000
     29 H1           4.9490    -1.2520    -0.1250 hc         1 6DY       0.051700
     30 H2           5.2740    -1.1020     1.5990 hc         1 6DY       0.051700
     31 H3           4.2870     2.7120     0.2910 h1         1 6DY       0.032200
     32 H4           3.9500     2.5880    -1.4420 h1         1 6DY       0.032200
     33 H5           8.3750     0.9290     1.8970 ha         1 6DY       0.111000
     34 H6          11.0250    -1.6500    -0.3200 ha         1 6DY       0.112000
     35 H7           9.1640    -2.2330    -1.8730 ha         1 6DY       0.111500
     36 H8           6.9140    -1.2440    -1.5510 ha         1 6DY       0.111000
     37 H9          10.6220    -0.0680     1.5630 ha         1 6DY       0.111500
     38 H10          5.6230     0.8040    -1.7110 hc         1 6DY       0.051700
     39 H11          6.3650     2.2140    -0.9610 hc         1 6DY       0.051700
     40 H12          6.1380     1.1990     1.2890 hc         1 6DY       0.047700
     41 H13         -4.0740    -3.1330    -0.0170 hn         1 6DY       0.525500
     42 H14         -2.3770    -3.3290    -0.2280 hn         1 6DY       0.525500
     43 H15         -0.6920     2.1540    -0.1840 hn         1 6DY       0.514000
     44 H16          0.7920    -0.1230     0.7950 h1         1 6DY       0.062200
     45 H17          0.7750    -0.1870    -0.9760 h1         1 6DY       0.062200
     46 H18          1.6630     2.1640    -1.0430 h1         1 6DY       0.037200
     47 H19          1.7830     2.1640     0.7170 h1         1 6DY       0.037200
     48 H21          2.8860    -0.6850     1.0670 h1         1 6DY       0.032200
     49 H22          3.6320     0.7370     1.8090 h1         1 6DY       0.032200
     50 H23         -7.9120     2.2440    -0.0890 ha         1 6DY       0.159000
     51 H24        -10.5100     1.5240    -0.0330 ha         1 6DY       0.143000
     52 H25        -10.5180    -1.2060     0.1250 h4         1 6DY       0.052100
     53 C07          1.8470     1.5210    -0.1720 c3         1 6DY       0.154800
     54 N01         -3.1370    -2.7910     0.1740 nv         1 6DY      -1.065900
@<TRIPOS>BOND
     1     1    12 1   
     2     1    19 1   
     3     1    29 1   
     4     1    30 1   
     5     2    10 1   
     6     2    18 1   
     7     2    31 1   
     8     2    32 1   
     9     3     9 ar  
    10     3    11 ar  
    11     3    33 1   
    12     4     7 ar  
    13     4     9 ar  
    14     4    34 1   
    15     5    20 1   
    16     5    21 2   
    17     5    23 1   
    18     6    21 1   
    19     6    22 2   
    20     6    24 1   
    21     7     8 ar  
    22     7    35 1   
    23     8    11 ar  
    24     8    36 1   
    25     9    37 1   
    26    10    12 1   
    27    10    38 1   
    28    10    39 1   
    29    11    12 1   
    30    12    40 1   
    31    13    14 2   
    32    13    23 1   
    33    13    54 1   
    34    14    15 1   
    35    15    16 1   
    36    15    20 2   
    37    16    17 1   
    38    16    43 1   
    39    17    44 1   
    40    17    45 1   
    41    17    53 1   
    42    18    19 1   
    43    18    53 1   
    44    19    48 1   
    45    19    49 1   
    46    22    23 1   
    47    24    25 2   
    48    24    28 1   
    49    25    26 1   
    50    25    50 1   
    51    26    27 2   
    52    26    51 1   
    53    27    28 1   
    54    27    52 1   
    55    41    54 1   
    56    42    54 1   
    57    46    53 1   
    58    47    53 1   
@<TRIPOS>SUBSTRUCTURE
     1 6DY         1 TEMP              0 ****  ****    0 ROOT
