@<TRIPOS>MOLECULE
6DY
   54    58     1     0     0
SMALL
bcc


@<TRIPOS>ATOM
      1 C10          4.9460    -0.1980     1.0750 c6         1 6DY      -0.070400
      2 C13          4.1200     1.9390    -0.6690 c6         1 6DY       0.170800
      3 C15          8.4700     0.2400     0.7440 ca         1 6DY      -0.124000
      4 C17          9.6470    -1.5860    -0.2900 ca         1 6DY      -0.129000
      5 C21         -3.9480     0.7270     0.1380 cc         1 6DY       0.507500
      6 C23         -5.9180     0.0270    -0.0270 cd         1 6DY       0.526300
      7 C18          8.4670    -1.9760    -0.9120 ca         1 6DY      -0.128000
      8 C19          7.2970    -1.2600    -0.7040 ca         1 6DY      -0.124000
      9 C16          9.6450    -0.4740     0.5400 ca         1 6DY      -0.128000
     10 C12          5.4240     1.2030    -0.9340 c6         1 6DY      -0.070400
     11 C14          7.2810    -0.1390     0.1270 ca         1 6DY      -0.075300
     12 C11          6.0100     0.6380     0.3610 c6         1 6DY      -0.016400
     13 C02         -2.8110    -1.3030    -0.3320 cc         1 6DY       0.885400
     14 N03         -1.6740    -0.6690    -0.1830 nd         1 6DY      -0.889000
     15 C04         -1.7160     0.6460     0.1160 cd         1 6DY       0.982900
     16 N05         -0.5400     1.2640     0.2450 nu         1 6DY      -0.856900
     17 C06          0.7480     0.6200     0.1130 c3         1 6DY       0.236800
     18 N08          3.1540     1.0690    -0.0230 n3         1 6DY      -0.727600
     19 C09          3.6570     0.5890     1.2520 c6         1 6DY       0.170800
     20 N20         -2.8130     1.3880     0.2890 nc         1 6DY      -0.810000
     21 N22         -5.1970     1.1430     0.2330 nd         1 6DY      -0.410300
     22 N24         -5.2330    -1.0670    -0.2800 nc         1 6DY      -0.599100
     23 N25         -3.9670    -0.6100    -0.1730 na         1 6DY      -0.203600
     24 C26         -7.3600     0.0540    -0.0220 cd         1 6DY       0.216400
     25 C27         -8.2410     1.0620     0.2120 cc         1 6DY      -0.205300
     26 C28         -9.5370     0.4880     0.0780 cc         1 6DY      -0.281300
     27 C29         -9.3370    -0.8170    -0.2270 cd         1 6DY       0.241600
     28 O30         -8.0210    -1.0900    -0.2900 os         1 6DY      -0.307800
     29 H1           4.7360    -1.1060     0.5010 hc         1 6DY       0.051700
     30 H2           5.3130    -0.5170     2.0530 hc         1 6DY       0.051700
     31 H3           4.3290     2.8410    -0.0660 h1         1 6DY       0.032200
     32 H4           3.7010     2.2850    -1.6160 h1         1 6DY       0.032200
     33 H5           8.4770     1.1060     1.3960 ha         1 6DY       0.129000
     34 H6          10.5600    -2.1460    -0.4510 ha         1 6DY       0.130000
     35 H7           8.4580    -2.8430    -1.5610 ha         1 6DY       0.129500
     36 H8           6.3870    -1.5810    -1.1970 ha         1 6DY       0.129000
     37 H9          10.5570    -0.1610     1.0320 ha         1 6DY       0.129500
     38 H10          5.2380     0.3940    -1.6480 hc         1 6DY       0.051700
     39 H11          6.1350     1.8860    -1.4050 hc         1 6DY       0.051700
     40 H12          6.2550     1.4880     1.0100 hc         1 6DY       0.047700
     41 H13         -3.7640    -3.0470    -0.7750 hn         1 6DY       0.470300
     42 H14         -2.0330    -3.1070    -0.7850 hn         1 6DY       0.470300
     43 H15         -0.5740     2.2360     0.5060 hn         1 6DY       0.458800
     44 H16          0.9040    -0.0870     0.9330 h1         1 6DY       0.062200
     45 H17          0.7880     0.0470    -0.8150 h1         1 6DY       0.062200
     46 H18          1.6810     2.3190    -0.7790 h1         1 6DY       0.037200
     47 H19          1.7630     2.3260     0.9780 h1         1 6DY       0.037200
     48 H21          2.9100    -0.0550     1.7210 h1         1 6DY       0.032200
     49 H22          3.8310     1.4250     1.9530 h1         1 6DY       0.032200
     50 H23         -7.9940     2.0840     0.4500 ha         1 6DY       0.177000
     51 H24        -10.4880     0.9820     0.1950 ha         1 6DY       0.161000
     52 H25        -10.0110    -1.6360    -0.4200 h4         1 6DY       0.052100
     53 C07          1.8450     1.6770     0.0900 c3         1 6DY       0.154800
     54 N01         -2.8810    -2.5890    -0.6240 nv         1 6DY      -0.955500
@<TRIPOS>BOND
     1     1    12 1   
     2     1    19 1   
     3     1    29 1   
     4     1    30 1   
     5     2    10 1   
     6     2    18 1   
     7     2    31 1   
     8     2    32 1   
     9     3     9 ar  
    10     3    11 ar  
    11     3    33 1   
    12     4     7 ar  
    13     4     9 ar  
    14     4    34 1   
    15     5    20 1   
    16     5    21 2   
    17     5    23 1   
    18     6    21 1   
    19     6    22 2   
    20     6    24 1   
    21     7     8 ar  
    22     7    35 1   
    23     8    11 ar  
    24     8    36 1   
    25     9    37 1   
    26    10    12 1   
    27    10    38 1   
    28    10    39 1   
    29    11    12 1   
    30    12    40 1   
    31    13    14 2   
    32    13    23 1   
    33    13    54 1   
    34    14    15 1   
    35    15    16 1   
    36    15    20 2   
    37    16    17 1   
    38    16    43 1   
    39    17    44 1   
    40    17    45 1   
    41    17    53 1   
    42    18    19 1   
    43    18    53 1   
    44    19    48 1   
    45    19    49 1   
    46    22    23 1   
    47    24    25 2   
    48    24    28 1   
    49    25    26 1   
    50    25    50 1   
    51    26    27 2   
    52    26    51 1   
    53    27    28 1   
    54    27    52 1   
    55    41    54 1   
    56    42    54 1   
    57    46    53 1   
    58    47    53 1   
@<TRIPOS>SUBSTRUCTURE
     1 6DY         1 TEMP              0 ****  ****    0 ROOT
