@<TRIPOS>MOLECULE
6DZ
   46    49     1     0     0
SMALL
abcg2


@<TRIPOS>ATOM
      1 N12         -3.5310     1.1670    -0.4290 nc         1 6DZ      -0.409300
      2 C13         -4.3610     0.1690    -0.0450 cc         1 6DZ       0.526300
      3 C20         -6.5660     1.3870    -0.4670 cd         1 6DZ      -0.121000
      4 C21         -7.9140     0.9670    -0.2870 cd         1 6DZ      -0.199000
      5 C22         -7.8500    -0.3010     0.1880 cc         1 6DZ       0.132900
      6 C24          5.2830    -0.1210    -1.1500 c6         1 6DZ       0.167800
      7 N02          7.5540    -0.1080    -0.2600 n3         1 6DZ      -0.719600
      8 C03          7.0380     0.4050     0.9920 c6         1 6DZ       0.164800
      9 C04          5.7730     1.2080     0.7600 c6         1 6DZ       0.167800
     10 N05          4.7670     0.3930     0.1050 n3         1 6DZ      -0.726600
     11 C06          3.5070     1.0880    -0.0500 c3         1 6DZ       0.153800
     12 C07          2.3400     0.1120    -0.1270 c3         1 6DZ       0.235800
     13 N08          1.1140     0.8480    -0.3370 nu         1 6DZ      -0.912100
     14 C09         -0.1170     0.3610    -0.1570 cc         1 6DZ       0.456900
     15 N10         -1.1340     1.1730    -0.4550 nd         1 6DZ      -0.284000
     16 C11         -2.3300     0.6490    -0.2480 cd         1 6DZ       0.243500
     17 N14         -3.7900    -0.9430     0.3650 nd         1 6DZ      -0.599100
     18 N15         -2.4840    -0.6280     0.2320 na         1 6DZ      -0.203600
     19 C16         -1.4030    -1.3990     0.5110 cd         1 6DZ       0.622400
     20 N17         -1.6000    -2.6220     0.9690 nv         1 6DZ      -1.065900
     21 N18         -0.2070    -0.9000     0.3110 nc         1 6DZ      -0.363000
     22 C19         -5.7930     0.3360    -0.0860 cc         1 6DZ       0.106700
     23 O23         -6.5690    -0.6930     0.3130 os         1 6DZ      -0.219000
     24 C25          6.5530    -0.9180    -0.9220 c6         1 6DZ       0.164800
     25 H1          -6.2160     2.3390    -0.8300 ha         1 6DZ       0.159000
     26 H2          -8.8090     1.5340    -0.4830 ha         1 6DZ       0.143000
     27 H3          -8.6040    -1.0180     0.4710 h4         1 6DZ       0.052100
     28 H4           4.5430    -0.7730    -1.6180 h1         1 6DZ       0.038950
     29 H5           5.4880     0.6960    -1.8640 h1         1 6DZ       0.038950
     30 H6           9.1760    -1.1590    -1.0460 h1         1 6DZ       0.031033
     31 H7           9.5460    -0.1600     0.3600 h1         1 6DZ       0.031033
     32 H8           8.7050    -1.7030     0.5720 h1         1 6DZ       0.031033
     33 H10          6.8280    -0.4060     1.7120 h1         1 6DZ       0.038450
     34 H11          7.7900     1.0510     1.4520 h1         1 6DZ       0.038450
     35 H12          5.3860     1.5480     1.7230 h1         1 6DZ       0.038950
     36 H13          6.0230     2.1080     0.1730 h1         1 6DZ       0.038950
     37 H15          3.3550     1.7350     0.8180 h1         1 6DZ       0.038200
     38 H16          3.5080     1.7460    -0.9350 h1         1 6DZ       0.038200
     39 H17          2.4910    -0.6170    -0.9290 h1         1 6DZ       0.062200
     40 H18          2.2810    -0.4470     0.8070 h1         1 6DZ       0.062200
     41 H19          1.1680     1.7640    -0.7520 hn         1 6DZ       0.513000
     42 H20         -2.5260    -2.9870     1.1180 hn         1 6DZ       0.526000
     43 H21         -0.8080    -3.2040     1.1830 hn         1 6DZ       0.526000
     44 H22          6.3080    -1.8270    -0.3430 h1         1 6DZ       0.038450
     45 H23          6.9440    -1.2510    -1.8870 h1         1 6DZ       0.038450
     46 C01          8.7960    -0.8200    -0.0800 c3         1 6DZ       0.154100
@<TRIPOS>BOND
     1     1     2 1   
     2     1    16 2   
     3     2    17 2   
     4     2    22 1   
     5     3     4 1   
     6     3    22 2   
     7     3    25 1   
     8     4     5 2   
     9     4    26 1   
    10     5    23 1   
    11     5    27 1   
    12     6    10 1   
    13     6    24 1   
    14     6    28 1   
    15     6    29 1   
    16     7     8 1   
    17     7    24 1   
    18     7    46 1   
    19     8     9 1   
    20     8    33 1   
    21     8    34 1   
    22     9    10 1   
    23     9    35 1   
    24     9    36 1   
    25    10    11 1   
    26    11    12 1   
    27    11    37 1   
    28    11    38 1   
    29    12    13 1   
    30    12    39 1   
    31    12    40 1   
    32    13    14 1   
    33    13    41 1   
    34    14    15 2   
    35    14    21 1   
    36    15    16 1   
    37    16    18 1   
    38    17    18 1   
    39    18    19 1   
    40    19    20 1   
    41    19    21 2   
    42    20    42 1   
    43    20    43 1   
    44    22    23 1   
    45    24    44 1   
    46    24    45 1   
    47    30    46 1   
    48    31    46 1   
    49    32    46 1   
@<TRIPOS>SUBSTRUCTURE
     1 6DZ         1 TEMP              0 ****  ****    0 ROOT
