@<TRIPOS>MOLECULE
6DZ
   46    49     1     0     0
SMALL
No Charge or Current Charge


@<TRIPOS>ATOM
      1 N12         -3.6250     1.1100    -0.0960 nc         1 6DZ      -0.409300
      2 C13         -4.4940     0.0330    -0.0560 cc         1 6DZ       0.526300
      3 C20         -6.5480     1.4860    -0.1660 cd         1 6DZ      -0.121000
      4 C21         -7.9340     1.2210    -0.1740 cd         1 6DZ      -0.199000
      5 C22         -8.0930    -0.1390    -0.1050 cc         1 6DZ       0.132900
      6 C24          5.2020    -0.5040    -0.7920 c6         1 6DZ       0.167800
      7 N02          7.6910    -0.1540    -0.4100 n3         1 6DZ      -0.719600
      8 C03          7.3390     0.8090     0.6770 c6         1 6DZ       0.164800
      9 C04          5.9420     1.4730     0.4510 c6         1 6DZ       0.167800
     10 N05          4.8460     0.4660     0.2950 n3         1 6DZ      -0.726600
     11 C06          3.5130     1.1070     0.1180 c3         1 6DZ       0.153800
     12 C07          2.2910     0.1430     0.1450 c3         1 6DZ       0.235800
     13 N08          1.0000     0.8700     0.0570 nu         1 6DZ      -0.912100
     14 C09         -0.2570     0.3340     0.0400 cc         1 6DZ       0.456900
     15 N10         -1.2560     1.2090    -0.0410 nd         1 6DZ      -0.284000
     16 C11         -2.4490     0.5370    -0.0470 cd         1 6DZ       0.243500
     17 N14         -3.9350    -1.1840     0.0190 nd         1 6DZ      -0.599100
     18 N15         -2.6220    -0.7970     0.0120 na         1 6DZ      -0.203600
     19 C16         -1.4900    -1.6010     0.0900 cd         1 6DZ       0.622400
     20 N17         -1.6410    -2.9390     0.1670 nv         1 6DZ      -1.065900
     21 N18         -0.2890    -1.0490     0.1130 nc         1 6DZ      -0.363000
     22 C19         -5.9220     0.2690    -0.0910 cc         1 6DZ       0.106700
     23 O23         -6.8570    -0.7470    -0.0530 os         1 6DZ      -0.219000
     24 C25          6.6010    -1.1650    -0.5690 c6         1 6DZ       0.164800
     25 H1          -6.0680     2.4600    -0.2090 ha         1 6DZ       0.159000
     26 H2          -8.7340     1.9530    -0.2260 ha         1 6DZ       0.143000
     27 H3          -8.9720    -0.7700    -0.0860 h4         1 6DZ       0.052100
     28 H4           4.4550    -1.3070    -0.8560 h1         1 6DZ       0.038950
     29 H5           5.2090     0.0080    -1.7660 h1         1 6DZ       0.038950
     30 H6           9.2650    -1.4320    -1.0620 h1         1 6DZ       0.031033
     31 H7           9.8000     0.0010    -0.1580 h1         1 6DZ       0.031033
     32 H8           9.0500    -1.3650     0.7040 h1         1 6DZ       0.031033
     33 H10          7.3270     0.2940     1.6490 h1         1 6DZ       0.038450
     34 H11          8.0980     1.6030     0.7430 h1         1 6DZ       0.038450
     35 H12          5.7300     2.1370     1.3020 h1         1 6DZ       0.038950
     36 H13          6.0000     2.1090    -0.4450 h1         1 6DZ       0.038950
     37 H15          3.3650     1.8430     0.9200 h1         1 6DZ       0.038200
     38 H16          3.4940     1.6620    -0.8300 h1         1 6DZ       0.038200
     39 H17          2.3720    -0.5630    -0.6920 h1         1 6DZ       0.062200
     40 H18          2.3280    -0.4390     1.0760 h1         1 6DZ       0.062200
     41 H19          1.0200     1.8900     0.0100 hn         1 6DZ       0.513000
     42 H20         -2.5880    -3.2350     0.3830 hn         1 6DZ       0.526000
     43 H21         -0.8970    -3.4580     0.6210 hn         1 6DZ       0.526000
     44 H22          6.5460    -1.8030     0.3260 h1         1 6DZ       0.038450
     45 H23          6.8170    -1.8260    -1.4210 h1         1 6DZ       0.038450
     46 C01          9.0210    -0.7710    -0.2200 c3         1 6DZ       0.154100
@<TRIPOS>BOND
     1     1     2 1   
     2     1    16 2   
     3     2    17 2   
     4     2    22 1   
     5     3     4 1   
     6     3    22 2   
     7     3    25 1   
     8     4     5 2   
     9     4    26 1   
    10     5    23 1   
    11     5    27 1   
    12     6    10 1   
    13     6    24 1   
    14     6    28 1   
    15     6    29 1   
    16     7     8 1   
    17     7    24 1   
    18     7    46 1   
    19     8     9 1   
    20     8    33 1   
    21     8    34 1   
    22     9    10 1   
    23     9    35 1   
    24     9    36 1   
    25    10    11 1   
    26    11    12 1   
    27    11    37 1   
    28    11    38 1   
    29    12    13 1   
    30    12    39 1   
    31    12    40 1   
    32    13    14 1   
    33    13    41 1   
    34    14    15 2   
    35    14    21 1   
    36    15    16 1   
    37    16    18 1   
    38    17    18 1   
    39    18    19 1   
    40    19    20 1   
    41    19    21 2   
    42    20    42 1   
    43    20    43 1   
    44    22    23 1   
    45    24    44 1   
    46    24    45 1   
    47    30    46 1   
    48    31    46 1   
    49    32    46 1   
@<TRIPOS>SUBSTRUCTURE
     1 6DZ         1 TEMP              0 ****  ****    0 ROOT
