@<TRIPOS>MOLECULE
6E1
   79    82     1     0     0
SMALL
No Charge or Current Charge


@<TRIPOS>ATOM
      1 C4A         -9.3350    -0.9250     0.9800 ca         1 6E1       0.115500
      2 C5F          8.7380     0.3200     0.8840 ca         1 6E1       0.183000
      3 C6F          9.8950    -0.4840     0.9520 ca         1 6E1       0.115500
      4 F49         10.9430    -0.0260     1.6790 f          1 6E1      -0.139250
      5 C1G          9.9400    -1.7330     0.2780 ca         1 6E1       0.083600
      6 O48         11.0320    -2.5980     0.2820 os         1 6E1      -0.333100
      7 C49         12.2710    -2.3450     0.9690 c3         1 6E1       0.146400
      8 C2F          8.8060    -2.1380    -0.4510 ca         1 6E1       0.115500
      9 F47          8.8260    -3.3220    -1.1120 f          1 6E1      -0.139250
     10 C3F          7.6520    -1.3340    -0.5150 ca         1 6E1       0.183000
     11 F46          6.6170    -1.7750    -1.2680 f          1 6E1      -0.139500
     12 C4F          7.5930    -0.0870     0.1550 ca         1 6E1      -0.206600
     13 O1G          6.4300     2.0160     0.2570 o          1 6E1      -0.554600
     14 N1E          5.1640     0.2030    -0.1660 ns         1 6E1      -0.482900
     15 C4D          3.8480     0.8790    -0.1880 c6         1 6E1       0.114700
     16 C3D          2.6860    -0.1570    -0.0490 c6         1 6E1       0.145300
     17 O1           2.8350    -0.9280     1.1650 oh         1 6E1      -0.699000
     18 C5D          3.6460     1.7260    -1.4880 c6         1 6E1       0.128300
     19 O2D          3.8390     0.9060    -2.6640 oh         1 6E1      -0.714000
     20 C1D          2.2200     2.3700    -1.4500 c6         1 6E1       0.135800
     21 C1E          1.9060     3.2290    -2.7180 c3         1 6E1       0.171100
     22 O1F          0.6110     3.8600    -2.6660 oh         1 6E1      -0.706000
     23 O1D          1.2040     1.3440    -1.3180 os         1 6E1      -0.412000
     24 C2D          1.3110     0.5840    -0.0980 c6         1 6E1       0.262300
     25 S1C         -0.1260    -0.5730    -0.0190 ss         1 6E1      -0.370000
     26 C1C         -1.4690     0.6910     0.0790 c6         1 6E1       0.262300
     27 C2C         -2.8990     0.0600     0.0230 c6         1 6E1       0.145300
     28 O01         -3.0990    -0.6740    -1.2070 oh         1 6E1      -0.699000
     29 O5C         -1.2970     1.4260     1.3050 os         1 6E1      -0.412000
     30 C5C         -2.2250     2.5280     1.4490 c6         1 6E1       0.135800
     31 C6C         -1.8190     3.3660     2.7050 c3         1 6E1       0.171100
     32 O83         -0.4800     3.8910     2.6240 oh         1 6E1      -0.706000
     33 C4C         -3.6960     1.9930     1.5040 c6         1 6E1       0.128300
     34 O4C         -3.9440     1.1610     2.6650 oh         1 6E1      -0.714000
     35 C3C         -3.9820     1.1790     0.2020 c6         1 6E1       0.114700
     36 NA          -5.3450     0.6110     0.2520 ns         1 6E1      -0.482900
     37 C1A         -6.2150     0.4820    -0.8060 c          1 6E1       0.639200
     38 OA          -5.9420     0.9610    -1.8970 o          1 6E1      -0.554600
     39 C2A         -7.5300    -0.2180    -0.5320 ca         1 6E1      -0.206600
     40 C3A         -8.1090    -0.2700     0.7610 ca         1 6E1       0.183000
     41 F50         -7.5210     0.3400     1.8170 f          1 6E1      -0.139500
     42 F51         -9.8600    -0.9470     2.2300 f          1 6E1      -0.139250
     43 C5A        -10.0290    -1.5510    -0.0740 ca         1 6E1       0.083600
     44 O54        -11.2340    -2.1730     0.2440 os         1 6E1      -0.333100
     45 C55        -12.0750    -2.8550    -0.7050 c3         1 6E1       0.146400
     46 C6A         -9.4600    -1.5030    -1.3750 ca         1 6E1       0.115500
     47 F53        -10.0630    -2.0850    -2.4400 f          1 6E1      -0.139250
     48 C7A         -8.2320    -0.8440    -1.5910 ca         1 6E1       0.183000
     49 F52         -7.7190    -0.8560    -2.8440 f          1 6E1      -0.139500
     50 H1          12.1070    -2.2440     2.0500 h1         1 6E1       0.048367
     51 H2          12.9670    -3.1780     0.8130 h1         1 6E1       0.048367
     52 H3          12.7510    -1.4330     0.5920 h1         1 6E1       0.048367
     53 H4           5.1750    -0.8080    -0.2350 hn         1 6E1       0.330500
     54 H5           3.8030     1.5590     0.6770 h1         1 6E1       0.099200
     55 H6           2.7240    -0.8340    -0.9160 h1         1 6E1       0.064200
     56 H7           2.0420    -1.5110     1.2300 ho         1 6E1       0.523000
     57 H8           4.3830     2.5430    -1.4850 h1         1 6E1       0.052200
     58 H9           4.7570     0.5530    -2.6180 ho         1 6E1       0.508000
     59 H10          2.1570     3.0370    -0.5770 h1         1 6E1       0.059700
     60 H11          2.6900     3.9920    -2.8150 h1         1 6E1       0.027950
     61 H12          1.9690     2.5810    -3.6020 h1         1 6E1       0.027950
     62 H13          0.4770     4.3100    -3.5320 ho         1 6E1       0.508000
     63 H14          1.2280     1.2570     0.7690 h2         1 6E1       0.082200
     64 H15         -1.3360     1.3660    -0.7810 h2         1 6E1       0.082200
     65 H16         -2.9830    -0.6300     0.8760 h1         1 6E1       0.064200
     66 H17         -2.3640    -1.3280    -1.2680 ho         1 6E1       0.523000
     67 H18         -2.1230     3.1860     0.5730 h1         1 6E1       0.059700
     68 H19         -2.5370     4.1910     2.8130 h1         1 6E1       0.027950
     69 H20         -1.9150     2.7300     3.5960 h1         1 6E1       0.027950
     70 H21         -0.2960     4.3450     3.4790 ho         1 6E1       0.508000
     71 H22         -4.3770     2.8570     1.5170 h1         1 6E1       0.052200
     72 H23         -4.0700     1.7570     3.4390 ho         1 6E1       0.508000
     73 H24         -3.9150     1.8680    -0.6530 h1         1 6E1       0.099200
     74 H25         -5.6510     0.2300     1.1390 hn         1 6E1       0.330500
     75 H26        -11.5440    -3.6970    -1.1660 h1         1 6E1       0.048367
     76 H27        -12.9640    -3.2540    -0.2030 h1         1 6E1       0.048367
     77 H28        -12.4140    -2.1700    -1.4930 h1         1 6E1       0.048367
     78 C1F          6.3710     0.8060     0.1030 c          1 6E1       0.639200
     79 F45          8.7380     1.4880     1.5700 f          1 6E1      -0.139500
@<TRIPOS>BOND
     1     1    40 ar  
     2     1    42 1   
     3     1    43 ar  
     4     2     3 ar  
     5     2    12 ar  
     6     2    79 1   
     7     3     4 1   
     8     3     5 ar  
     9     5     6 1   
    10     5     8 ar  
    11     6     7 1   
    12     7    50 1   
    13     7    51 1   
    14     7    52 1   
    15     8     9 1   
    16     8    10 ar  
    17    10    11 1   
    18    10    12 ar  
    19    12    78 1   
    20    13    78 2   
    21    14    15 1   
    22    14    53 1   
    23    14    78 1   
    24    15    16 1   
    25    15    18 1   
    26    15    54 1   
    27    16    17 1   
    28    16    24 1   
    29    16    55 1   
    30    17    56 1   
    31    18    19 1   
    32    18    20 1   
    33    18    57 1   
    34    19    58 1   
    35    20    21 1   
    36    20    23 1   
    37    20    59 1   
    38    21    22 1   
    39    21    60 1   
    40    21    61 1   
    41    22    62 1   
    42    23    24 1   
    43    24    25 1   
    44    24    63 1   
    45    25    26 1   
    46    26    27 1   
    47    26    29 1   
    48    26    64 1   
    49    27    28 1   
    50    27    35 1   
    51    27    65 1   
    52    28    66 1   
    53    29    30 1   
    54    30    31 1   
    55    30    33 1   
    56    30    67 1   
    57    31    32 1   
    58    31    68 1   
    59    31    69 1   
    60    32    70 1   
    61    33    34 1   
    62    33    35 1   
    63    33    71 1   
    64    34    72 1   
    65    35    36 1   
    66    35    73 1   
    67    36    37 1   
    68    36    74 1   
    69    37    38 2   
    70    37    39 1   
    71    39    40 ar  
    72    39    48 ar  
    73    40    41 1   
    74    43    44 1   
    75    43    46 ar  
    76    44    45 1   
    77    45    75 1   
    78    45    76 1   
    79    45    77 1   
    80    46    47 1   
    81    46    48 ar  
    82    48    49 1   
@<TRIPOS>SUBSTRUCTURE
     1 6E1         1 TEMP              0 ****  ****    0 ROOT
