@<TRIPOS>MOLECULE
6E1
   79    82     1     0     0
SMALL
bcc


@<TRIPOS>ATOM
      1 C4A         -9.4700    -0.2740     0.0980 ca         1 6E1       0.080400
      2 C5F          8.4280     0.4340    -0.3300 ca         1 6E1       0.147900
      3 C6F          9.5830    -0.3110    -0.4590 ca         1 6E1       0.080400
      4 F49         10.6580     0.2240    -1.0290 f          1 6E1      -0.104150
      5 C1G          9.6320    -1.6250    -0.0070 ca         1 6E1       0.083600
      6 O48         10.7380    -2.3690    -0.1710 os         1 6E1      -0.309900
      7 C49         11.6710    -2.3110     0.9120 c3         1 6E1       0.123200
      8 C2F          8.4920    -2.1590     0.5810 ca         1 6E1       0.080400
      9 F47          8.5110    -3.4110     1.0280 f          1 6E1      -0.104150
     10 C3F          7.3400    -1.4050     0.6970 ca         1 6E1       0.147900
     11 F46          6.2630    -1.9450     1.2620 f          1 6E1      -0.104400
     12 C4F          7.2900    -0.1010     0.2420 ca         1 6E1      -0.206600
     13 O1G          5.9930     1.5730     1.3030 o          1 6E1      -0.554600
     14 N1E          5.1090     0.4890    -0.4910 ns         1 6E1      -0.549900
     15 C4D          3.8110     1.1140    -0.5140 c6         1 6E1       0.114700
     16 C3D          2.7390     0.1610     0.0240 c6         1 6E1       0.122100
     17 O1           3.0350    -0.0850     1.3680 oh         1 6E1      -0.576800
     18 C5D          3.4780     1.5890    -1.9290 c6         1 6E1       0.105100
     19 O2D          3.6050     0.4850    -2.7980 oh         1 6E1      -0.591800
     20 C1D          2.0630     2.1640    -1.9370 c6         1 6E1       0.112600
     21 C1E          1.6280     2.6110    -3.3150 c3         1 6E1       0.147900
     22 O1F          0.3980     3.2830    -3.2030 oh         1 6E1      -0.583800
     23 O1D          1.1420     1.1960    -1.4740 os         1 6E1      -0.365600
     24 C2D          1.3730     0.8380    -0.1440 c6         1 6E1       0.191200
     25 S1C          0.0720    -0.3060     0.3710 ss         1 6E1      -0.274200
     26 C1C         -1.2920     0.8570     0.6190 c6         1 6E1       0.191200
     27 C2C         -2.6150     0.1370     0.3220 c6         1 6E1       0.122100
     28 O01         -2.7210    -0.2120    -1.0280 oh         1 6E1      -0.576800
     29 O5C         -1.2420     1.3290     1.9320 os         1 6E1      -0.365600
     30 C5C         -2.2440     2.2940     2.1990 c6         1 6E1       0.112600
     31 C6C         -2.0130     2.8520     3.5850 c3         1 6E1       0.147900
     32 O83         -0.7930     3.5530     3.5960 oh         1 6E1      -0.583800
     33 C4C         -3.6310     1.6730     2.0490 c6         1 6E1       0.105100
     34 O4C         -3.8480     0.6260     2.9690 oh         1 6E1      -0.591800
     35 C3C         -3.7620     1.0970     0.6390 c6         1 6E1       0.114700
     36 NA          -5.0430     0.4510     0.4860 ns         1 6E1      -0.549900
     37 C1A         -5.8540     0.6280    -0.5590 c          1 6E1       0.706200
     38 OA          -5.6500     1.3570    -1.5100 o          1 6E1      -0.554600
     39 C2A         -7.1330    -0.1630    -0.4630 ca         1 6E1      -0.206600
     40 C3A         -8.2760     0.4160     0.0540 ca         1 6E1       0.147900
     41 F50         -8.2220     1.6600     0.5260 f          1 6E1      -0.104400
     42 F51        -10.5520     0.3040     0.6120 f          1 6E1      -0.104150
     43 C5A         -9.5540    -1.5760    -0.3820 ca         1 6E1       0.083600
     44 O54        -10.7040    -2.2660    -0.3040 os         1 6E1      -0.309900
     45 C55        -11.5580    -2.1390    -1.4450 c3         1 6E1       0.123200
     46 C6A         -8.4060    -2.1550    -0.9100 ca         1 6E1       0.080400
     47 F53         -8.4570    -3.3980    -1.3780 f          1 6E1      -0.104150
     48 C7A         -7.2160    -1.4540    -0.9460 ca         1 6E1       0.147900
     49 F52         -6.1320    -2.0340    -1.4560 f          1 6E1      -0.104400
     50 H1          11.2340    -2.6920     1.8360 h1         1 6E1       0.048367
     51 H2          12.5120    -2.9380     0.6310 h1         1 6E1       0.048367
     52 H3          12.0270    -1.2920     1.0780 h1         1 6E1       0.048367
     53 H4           5.2850    -0.2170    -1.1910 hn         1 6E1       0.330500
     54 H5           3.8430     1.9910     0.1370 h1         1 6E1       0.099200
     55 H6           2.7490    -0.7620    -0.5740 h1         1 6E1       0.064200
     56 H7           2.5420    -0.8570     1.6640 ho         1 6E1       0.424000
     57 H8           4.1810     2.3880    -2.1930 h1         1 6E1       0.052200
     58 H9           3.9380     0.7850    -3.6480 ho         1 6E1       0.409000
     59 H10          2.0570     3.0410    -1.2690 h1         1 6E1       0.059700
     60 H11          2.4130     3.2640    -3.7190 h1         1 6E1       0.027950
     61 H12          1.5570     1.7410    -3.9780 h1         1 6E1       0.027950
     62 H13          0.0930     3.4970    -4.0890 ho         1 6E1       0.409000
     63 H14          1.3310     1.7170     0.5170 h2         1 6E1       0.082200
     64 H15         -1.1680     1.6740    -0.1100 h2         1 6E1       0.082200
     65 H16         -2.6870    -0.7420     0.9790 h1         1 6E1       0.064200
     66 H17         -2.0350    -0.8560    -1.2340 ho         1 6E1       0.424000
     67 H18         -2.1740     3.1220     1.4740 h1         1 6E1       0.059700
     68 H19         -2.8600     3.5080     3.8240 h1         1 6E1       0.027950
     69 H20         -2.0180     2.0350     4.3160 h1         1 6E1       0.027950
     70 H21         -0.6780     3.9320     4.4730 ho         1 6E1       0.409000
     71 H22         -4.3800     2.4650     2.1610 h1         1 6E1       0.052200
     72 H23         -4.3080     0.9690     3.7400 ho         1 6E1       0.409000
     73 H24         -3.7170     1.9290    -0.0690 h1         1 6E1       0.099200
     74 H25         -5.3260    -0.1810     1.2200 hn         1 6E1       0.330500
     75 H26        -11.0770    -2.5220    -2.3470 h1         1 6E1       0.048367
     76 H27        -12.4450    -2.7300    -1.2360 h1         1 6E1       0.048367
     77 H28        -11.8520    -1.1010    -1.6090 h1         1 6E1       0.048367
     78 C1F          6.0540     0.7430     0.4180 c          1 6E1       0.706200
     79 F45          8.4060     1.6860    -0.7830 f          1 6E1      -0.104400
@<TRIPOS>BOND
     1     1    40 ar  
     2     1    42 1   
     3     1    43 ar  
     4     2     3 ar  
     5     2    12 ar  
     6     2    79 1   
     7     3     4 1   
     8     3     5 ar  
     9     5     6 1   
    10     5     8 ar  
    11     6     7 1   
    12     7    50 1   
    13     7    51 1   
    14     7    52 1   
    15     8     9 1   
    16     8    10 ar  
    17    10    11 1   
    18    10    12 ar  
    19    12    78 1   
    20    13    78 2   
    21    14    15 1   
    22    14    53 1   
    23    14    78 1   
    24    15    16 1   
    25    15    18 1   
    26    15    54 1   
    27    16    17 1   
    28    16    24 1   
    29    16    55 1   
    30    17    56 1   
    31    18    19 1   
    32    18    20 1   
    33    18    57 1   
    34    19    58 1   
    35    20    21 1   
    36    20    23 1   
    37    20    59 1   
    38    21    22 1   
    39    21    60 1   
    40    21    61 1   
    41    22    62 1   
    42    23    24 1   
    43    24    25 1   
    44    24    63 1   
    45    25    26 1   
    46    26    27 1   
    47    26    29 1   
    48    26    64 1   
    49    27    28 1   
    50    27    35 1   
    51    27    65 1   
    52    28    66 1   
    53    29    30 1   
    54    30    31 1   
    55    30    33 1   
    56    30    67 1   
    57    31    32 1   
    58    31    68 1   
    59    31    69 1   
    60    32    70 1   
    61    33    34 1   
    62    33    35 1   
    63    33    71 1   
    64    34    72 1   
    65    35    36 1   
    66    35    73 1   
    67    36    37 1   
    68    36    74 1   
    69    37    38 2   
    70    37    39 1   
    71    39    40 ar  
    72    39    48 ar  
    73    40    41 1   
    74    43    44 1   
    75    43    46 ar  
    76    44    45 1   
    77    45    75 1   
    78    45    76 1   
    79    45    77 1   
    80    46    47 1   
    81    46    48 ar  
    82    48    49 1   
@<TRIPOS>SUBSTRUCTURE
     1 6E1         1 TEMP              0 ****  ****    0 ROOT
