@<TRIPOS>MOLECULE
6E2
   63    67     1     0     0
SMALL
No Charge or Current Charge


@<TRIPOS>ATOM
      1 C28          9.2850    -0.0420    -0.4530 c6         1 6E2       0.123800
      2 C30         10.4110     1.0120    -0.6740 c6         1 6E2       0.153100
      3 O31         10.4410     1.9510     0.4280 os         1 6E2      -0.449000
      4 C29          9.1830     2.6460     0.6000 c6         1 6E2       0.153100
      5 C27          8.0280     1.6290     0.8430 c6         1 6E2       0.123800
      6 N26          7.9490     0.6010    -0.2470 n3         1 6E2      -0.710600
      7 C25          6.8690    -0.3990    -0.0610 c3         1 6E2       0.168800
      8 C24          5.4400     0.1850    -0.0720 c3         1 6E2      -0.083400
      9 C23          4.3600    -0.9100    -0.0380 c3         1 6E2       0.160600
     10 O22          3.0800    -0.2580    -0.0460 os         1 6E2      -0.323100
     11 C6           1.8860    -0.9600    -0.0210 ca         1 6E2       0.161100
     12 C4           0.6740    -0.2320    -0.0390 ca         1 6E2       0.070100
     13 C2          -0.5810    -0.9090    -0.0020 ca         1 6E2       0.331000
     14 N9          -1.7760    -0.1500     0.0190 nc         1 6E2      -0.731000
     15 O20          0.7470     1.1530    -0.0660 os         1 6E2      -0.329100
     16 C21          0.3390     1.8720    -1.2440 c3         1 6E2       0.147900
     17 C5           1.8580    -2.3680     0.0090 ca         1 6E2      -0.220000
     18 C3           0.6310    -3.0410     0.0290 ca         1 6E2      -0.011000
     19 C1          -0.5740    -2.3140     0.0280 ca         1 6E2      -0.147000
     20 C7          -1.8460    -2.9730     0.0630 cc         1 6E2       0.084000
     21 N32         -2.0620    -4.2560     0.0900 n2         1 6E2      -0.346200
     22 C33         -3.5530    -4.4740     0.1230 c5         1 6E2       0.099800
     23 C34         -4.1500    -3.0470     0.1120 c5         1 6E2       0.031600
     24 N8          -2.9740    -2.2230     0.0750 na         1 6E2      -0.337500
     25 C10         -2.9360    -0.8210     0.0510 cd         1 6E2       0.716400
     26 N11         -4.1370    -0.1690     0.0670 ns         1 6E2      -0.518400
     27 C12         -4.4120     1.1740     0.0210 c          1 6E2       0.661700
     28 O13         -3.5630     2.0470    -0.0530 o          1 6E2      -0.528100
     29 C14         -5.8680     1.5280     0.0650 ca         1 6E2      -0.357600
     30 C16         -6.2670     2.8790     0.0210 ca         1 6E2       0.201400
     31 N18         -7.5640     3.2370     0.0580 nb         1 6E2      -0.255000
     32 C19         -8.4500     2.2370     0.1400 ca         1 6E2       0.406900
     33 N35         -9.7560     2.5960     0.1760 nv         1 6E2      -1.057900
     34 N17         -8.1960     0.9240     0.1880 nb         1 6E2      -0.255000
     35 C15         -6.8980     0.5670     0.1510 ca         1 6E2       0.201400
     36 H1           9.2560    -0.7110    -1.3260 h1         1 6E2       0.041700
     37 H2          11.3850     0.5100    -0.7460 h1         1 6E2       0.051450
     38 H3           9.2650     3.3320     1.4550 h1         1 6E2       0.051450
     39 H4           8.9730     3.2440    -0.2990 h1         1 6E2       0.051450
     40 H5           8.1870     1.1420     1.8170 h1         1 6E2       0.041700
     41 H6           7.0880     2.1950     0.9150 h1         1 6E2       0.041700
     42 H7           6.9290    -1.1410    -0.8700 h1         1 6E2       0.030200
     43 H8           7.0210    -0.9430     0.8820 h1         1 6E2       0.030200
     44 H9           5.2990     0.8420     0.7930 hc         1 6E2       0.065700
     45 H10          5.3080     0.7920    -0.9750 hc         1 6E2       0.065700
     46 H11          4.4700    -1.5610    -0.9150 h1         1 6E2       0.034200
     47 H12          4.4810    -1.5160     0.8700 h1         1 6E2       0.034200
     48 H13          0.9220     1.5450    -2.1140 h1         1 6E2       0.039367
     49 H14         -0.7240     1.7180    -1.4630 h1         1 6E2       0.039367
     50 H15          0.5030     2.9480    -1.1070 h1         1 6E2       0.039367
     51 H16          2.7710    -2.9560     0.0160 ha         1 6E2       0.122000
     52 H17          0.6180    -4.1290     0.0530 ha         1 6E2       0.134000
     53 H19         -3.8750    -5.0540    -0.7520 h1         1 6E2       0.067700
     54 H20         -3.8400    -5.0260     1.0280 h1         1 6E2       0.067700
     55 H21         -4.7790    -2.8800    -0.7730 h1         1 6E2       0.052700
     56 H22         -4.7410    -2.8510     1.0170 h1         1 6E2       0.052700
     57 H23         -4.9530    -0.7520     0.1140 hn         1 6E2       0.324500
     58 H24         -5.5450     3.6920    -0.0460 h4         1 6E2       0.032600
     59 H25        -10.0010     3.5470    -0.0910 hn         1 6E2       0.512000
     60 H26        -10.4610     1.8820     0.0030 hn         1 6E2       0.512000
     61 H27         -6.7010    -0.5030     0.1910 h4         1 6E2       0.032600
     62 H18          9.5500    -0.6600     0.4170 h1         1 6E2       0.041700
     63 H28         10.2360     1.5580    -1.6120 h1         1 6E2       0.051450
@<TRIPOS>BOND
     1     1     2 1   
     2     1     6 1   
     3     1    36 1   
     4     1    62 1   
     5     2     3 1   
     6     2    37 1   
     7     2    63 1   
     8     3     4 1   
     9     4     5 1   
    10     4    38 1   
    11     4    39 1   
    12     5     6 1   
    13     5    40 1   
    14     5    41 1   
    15     6     7 1   
    16     7     8 1   
    17     7    42 1   
    18     7    43 1   
    19     8     9 1   
    20     8    44 1   
    21     8    45 1   
    22     9    10 1   
    23     9    46 1   
    24     9    47 1   
    25    10    11 1   
    26    11    12 ar  
    27    11    17 ar  
    28    12    13 ar  
    29    12    15 1   
    30    13    14 1   
    31    13    19 ar  
    32    14    25 2   
    33    15    16 1   
    34    16    48 1   
    35    16    49 1   
    36    16    50 1   
    37    17    18 ar  
    38    17    51 1   
    39    18    19 ar  
    40    18    52 1   
    41    19    20 1   
    42    20    21 2   
    43    20    24 1   
    44    21    22 1   
    45    22    23 1   
    46    22    53 1   
    47    22    54 1   
    48    23    24 1   
    49    23    55 1   
    50    23    56 1   
    51    24    25 1   
    52    25    26 1   
    53    26    27 1   
    54    26    57 1   
    55    27    28 2   
    56    27    29 1   
    57    29    30 ar  
    58    29    35 ar  
    59    30    31 ar  
    60    30    58 1   
    61    31    32 ar  
    62    32    33 1   
    63    32    34 ar  
    64    33    59 1   
    65    33    60 1   
    66    34    35 ar  
    67    35    61 1   
@<TRIPOS>SUBSTRUCTURE
     1 6E2         1 TEMP              0 ****  ****    0 ROOT
