@<TRIPOS>MOLECULE
6E2
   63    67     1     0     0
SMALL
bcc


@<TRIPOS>ATOM
      1 C28          8.9960     0.1100    -0.5540 c6         1 6E2       0.123800
      2 C30         10.0860     1.1610    -0.6270 c6         1 6E2       0.129900
      3 O31         10.2100     1.8650     0.5890 os         1 6E2      -0.402600
      4 C29          8.9850     2.4670     0.9390 c6         1 6E2       0.129900
      5 C27          7.8660     1.4490     1.0460 c6         1 6E2       0.123800
      6 N26          7.7260     0.7200    -0.2030 n3         1 6E2      -0.710600
      7 C25          6.6710    -0.2740    -0.1510 c3         1 6E2       0.168800
      8 C24          5.2740     0.3330    -0.0930 c3         1 6E2      -0.083400
      9 C23          4.2290    -0.7610    -0.1000 c3         1 6E2       0.137400
     10 O22          2.9470    -0.1520    -0.0320 os         1 6E2      -0.299900
     11 C6           1.8610    -0.9350    -0.0190 ca         1 6E2       0.161100
     12 C4           0.6330    -0.2700     0.0480 ca         1 6E2       0.004800
     13 C2          -0.5650    -0.9960     0.0400 ca         1 6E2       0.461600
     14 N9          -1.7470    -0.2960     0.0890 nc         1 6E2      -0.731000
     15 O20          0.6230     1.0820     0.1350 os         1 6E2      -0.305900
     16 C21          0.3490     1.7570    -1.0870 c3         1 6E2       0.124700
     17 C5           1.8970    -2.3340    -0.0600 ca         1 6E2      -0.238000
     18 C3           0.7200    -3.0530    -0.0530 ca         1 6E2      -0.029000
     19 C1          -0.5070    -2.4010    -0.0050 ca         1 6E2      -0.212300
     20 C7          -1.7640    -3.1120    -0.0100 cc         1 6E2       0.134700
     21 N32         -1.9740    -4.3660    -0.0560 n2         1 6E2      -0.346200
     22 C33         -3.4140    -4.5780    -0.0610 c5         1 6E2       0.099800
     23 C34         -4.0780    -3.1810    -0.0580 c5         1 6E2       0.002300
     24 N8          -2.9040    -2.3170     0.0150 na         1 6E2      -0.358900
     25 C10         -2.8430    -0.9640     0.0490 cd         1 6E2       0.716400
     26 N11         -4.0690    -0.3240     0.0650 ns         1 6E2      -0.585400
     27 C12         -4.3340     0.9280    -0.4530 c          1 6E2       0.728700
     28 O13         -3.5450     1.5530    -1.1270 o          1 6E2      -0.528100
     29 C14         -5.6850     1.4410    -0.1560 ca         1 6E2      -0.488200
     30 C16         -6.2190     2.4630    -0.9440 ca         1 6E2       0.529700
     31 N18         -7.4060     2.9840    -0.7420 nb         1 6E2      -0.781000
     32 C19         -8.1100     2.4940     0.2940 ca         1 6E2       0.932900
     33 N35         -9.3210     3.0040     0.5070 nv         1 6E2      -0.947500
     34 N17         -7.6860     1.5360     1.1340 nb         1 6E2      -0.781000
     35 C15         -6.4960     1.0290     0.9000 ca         1 6E2       0.529700
     36 H1           8.9090    -0.3750    -1.5290 h1         1 6E2       0.041700
     37 H2          11.0480     0.6900    -0.8330 h1         1 6E2       0.051450
     38 H3           9.1260     2.9660     1.9000 h1         1 6E2       0.051450
     39 H4           8.7090     3.2320     0.1990 h1         1 6E2       0.051450
     40 H5           8.0630     0.7640     1.8900 h1         1 6E2       0.041700
     41 H6           6.9420     1.9830     1.2760 h1         1 6E2       0.041700
     42 H7           6.7480    -0.8870    -1.0550 h1         1 6E2       0.030200
     43 H8           6.8110    -0.9620     0.7010 h1         1 6E2       0.030200
     44 H9           5.1500     0.9360     0.8100 hc         1 6E2       0.065700
     45 H10          5.1330     0.9940    -0.9510 hc         1 6E2       0.065700
     46 H11          4.3120    -1.3650    -1.0110 h1         1 6E2       0.034200
     47 H12          4.3730    -1.4320     0.7540 h1         1 6E2       0.034200
     48 H13          1.0520     1.4660    -1.8720 h1         1 6E2       0.039367
     49 H14         -0.6700     1.5670    -1.4260 h1         1 6E2       0.039367
     50 H15          0.4650     2.8220    -0.8950 h1         1 6E2       0.039367
     51 H16          2.8360    -2.8680    -0.1060 ha         1 6E2       0.140000
     52 H17          0.7510    -4.1340    -0.0870 ha         1 6E2       0.152000
     53 H19         -3.7100    -5.1550    -0.9400 h1         1 6E2       0.067700
     54 H20         -3.7140    -5.1600     0.8130 h1         1 6E2       0.067700
     55 H21         -4.6500    -2.9800    -0.9650 h1         1 6E2       0.052700
     56 H22         -4.7290    -3.0370     0.8050 h1         1 6E2       0.052700
     57 H23         -4.8580    -0.8640     0.3850 hn         1 6E2       0.324500
     58 H24         -5.6510     2.8600    -1.7790 h4         1 6E2       0.032600
     59 H25         -9.6900     3.7160    -0.1000 hn         1 6E2       0.456800
     60 H26         -9.8990     2.6560     1.2510 hn         1 6E2       0.456800
     61 H27         -6.1650     0.2730     1.6060 h4         1 6E2       0.032600
     62 H18          9.2890    -0.6700     0.1710 h1         1 6E2       0.041700
     63 H28          9.8680     1.8570    -1.4500 h1         1 6E2       0.051450
@<TRIPOS>BOND
     1     1     2 1   
     2     1     6 1   
     3     1    36 1   
     4     1    62 1   
     5     2     3 1   
     6     2    37 1   
     7     2    63 1   
     8     3     4 1   
     9     4     5 1   
    10     4    38 1   
    11     4    39 1   
    12     5     6 1   
    13     5    40 1   
    14     5    41 1   
    15     6     7 1   
    16     7     8 1   
    17     7    42 1   
    18     7    43 1   
    19     8     9 1   
    20     8    44 1   
    21     8    45 1   
    22     9    10 1   
    23     9    46 1   
    24     9    47 1   
    25    10    11 1   
    26    11    12 ar  
    27    11    17 ar  
    28    12    13 ar  
    29    12    15 1   
    30    13    14 1   
    31    13    19 ar  
    32    14    25 2   
    33    15    16 1   
    34    16    48 1   
    35    16    49 1   
    36    16    50 1   
    37    17    18 ar  
    38    17    51 1   
    39    18    19 ar  
    40    18    52 1   
    41    19    20 1   
    42    20    21 2   
    43    20    24 1   
    44    21    22 1   
    45    22    23 1   
    46    22    53 1   
    47    22    54 1   
    48    23    24 1   
    49    23    55 1   
    50    23    56 1   
    51    24    25 1   
    52    25    26 1   
    53    26    27 1   
    54    26    57 1   
    55    27    28 2   
    56    27    29 1   
    57    29    30 ar  
    58    29    35 ar  
    59    30    31 ar  
    60    30    58 1   
    61    31    32 ar  
    62    32    33 1   
    63    32    34 ar  
    64    33    59 1   
    65    33    60 1   
    66    34    35 ar  
    67    35    61 1   
@<TRIPOS>SUBSTRUCTURE
     1 6E2         1 TEMP              0 ****  ****    0 ROOT
