@<TRIPOS>MOLECULE
6E3
   26    27     1     0     0
SMALL
No Charge or Current Charge


@<TRIPOS>ATOM
      1 O1          -1.6530    -2.4120     0.1000 o          1 6E3      -0.472000
      2 C7          -1.6970     2.5890    -0.0550 c3         1 6E3      -0.052900
      3 C8           1.6640     2.5850    -0.0540 c3         1 6E3      -0.052900
      4 C9           3.5950    -0.1060    -0.0220 c3         1 6E3      -0.012400
      5 N           -0.0130     0.6300     0.0030 na         1 6E3      -0.317200
      6 C3          -1.3110     1.1380    -0.0050 cc         1 6E3       0.163800
      7 C4          -2.0960    -0.0080     0.0420 cd         1 6E3      -0.263400
      8 C5          -1.2900    -1.2440     0.0670 c          1 6E3       0.585700
      9 C6          -3.6050    -0.1000     0.0570 c3         1 6E3      -0.012400
     10 C1           2.0880    -0.0060    -0.0080 cc         1 6E3      -0.263400
     11 N1          -0.0060    -0.7660     0.0400 n          1 6E3      -0.240800
     12 C            1.2830    -1.2390     0.0360 c          1 6E3       0.585700
     13 O            1.6460    -2.4070     0.0650 o          1 6E3      -0.472000
     14 C2           1.2890     1.1280    -0.0230 cd         1 6E3       0.163800
     15 H4          -1.2010     3.0950    -0.8910 hc         1 6E3       0.062367
     16 H3          -2.7780     2.7080    -0.1890 hc         1 6E3       0.062367
     17 H11         -1.4130     3.0980     0.8730 hc         1 6E3       0.062367
     18 H6           2.7430     2.7230     0.0730 hc         1 6E3       0.062367
     19 H5           1.3780     3.0410    -1.0090 hc         1 6E3       0.062367
     20 H7           1.1640     3.1360     0.7500 hc         1 6E3       0.062367
     21 H9           3.9320    -1.0250    -0.5170 hc         1 6E3       0.047867
     22 H10          4.0430     0.7380    -0.5600 hc         1 6E3       0.047867
     23 H8           3.9940    -0.1070     0.9990 hc         1 6E3       0.047867
     24 H2          -4.0090    -0.0670    -0.9620 hc         1 6E3       0.047867
     25 H1          -3.9510    -1.0300     0.5240 hc         1 6E3       0.047867
     26 H           -4.0480     0.7300     0.6190 hc         1 6E3       0.047867
@<TRIPOS>BOND
     1     1     8 2   
     2     2     6 1   
     3     2    15 1   
     4     2    16 1   
     5     2    17 1   
     6     3    14 1   
     7     3    18 1   
     8     3    19 1   
     9     3    20 1   
    10     4    10 1   
    11     4    21 1   
    12     4    22 1   
    13     4    23 1   
    14     5     6 1   
    15     5    11 1   
    16     5    14 1   
    17     6     7 2   
    18     7     8 1   
    19     7     9 1   
    20     8    11 1   
    21     9    24 1   
    22     9    25 1   
    23     9    26 1   
    24    10    12 1   
    25    10    14 2   
    26    11    12 1   
    27    12    13 2   
@<TRIPOS>SUBSTRUCTURE
     1 6E3         1 TEMP              0 ****  ****    0 ROOT
