@<TRIPOS>MOLECULE
6E3
   26    27     1     0     0
SMALL
abcg2


@<TRIPOS>ATOM
      1 O1          -1.6230    -2.3750     0.1060 o          1 6E3      -0.472000
      2 C7          -1.6290     2.5210     0.0030 c3         1 6E3      -0.052900
      3 C8           1.6100     2.5200    -0.0230 c3         1 6E3      -0.052900
      4 C9           3.5940    -0.0500    -0.1020 c3         1 6E3      -0.012400
      5 N           -0.0090     0.6330     0.1990 na         1 6E3      -0.317200
      6 C3          -1.3040     1.0770     0.0610 cc         1 6E3       0.163800
      7 C4          -2.1310    -0.0010     0.0290 cd         1 6E3      -0.263400
      8 C5          -1.3160    -1.2020     0.1180 c          1 6E3       0.585700
      9 C6          -3.6140    -0.0520    -0.0710 c3         1 6E3      -0.012400
     10 C1           2.1120    -0.0020     0.0090 cc         1 6E3      -0.263400
     11 N1          -0.0090    -0.7210     0.2360 n          1 6E3      -0.240800
     12 C            1.2970    -1.2030     0.1070 c          1 6E3       0.585700
     13 O            1.6030    -2.3760     0.0940 o          1 6E3      -0.472000
     14 C2           1.2850     1.0770     0.0480 cd         1 6E3       0.163800
     15 H4          -1.2070     2.9910    -0.8860 hc         1 6E3       0.062367
     16 H3          -2.7060     2.6570    -0.0290 hc         1 6E3       0.062367
     17 H11         -1.2460     3.0480     0.8760 hc         1 6E3       0.062367
     18 H6           2.6870     2.6550    -0.0710 hc         1 6E3       0.062367
     19 H5           1.1740     2.9840    -0.9090 hc         1 6E3       0.062367
     20 H7           1.2410     3.0540     0.8530 hc         1 6E3       0.062367
     21 H9           3.9030    -0.7380    -0.8890 hc         1 6E3       0.047867
     22 H10          4.0130     0.9260    -0.3390 hc         1 6E3       0.047867
     23 H8           4.0550    -0.3910     0.8270 hc         1 6E3       0.047867
     24 H2          -3.9290    -0.5940    -0.9640 hc         1 6E3       0.047867
     25 H1          -4.0510    -0.5610     0.7890 hc         1 6E3       0.047867
     26 H           -4.0490     0.9440    -0.1220 hc         1 6E3       0.047867
@<TRIPOS>BOND
     1     1     8 2   
     2     2     6 1   
     3     2    15 1   
     4     2    16 1   
     5     2    17 1   
     6     3    14 1   
     7     3    18 1   
     8     3    19 1   
     9     3    20 1   
    10     4    10 1   
    11     4    21 1   
    12     4    22 1   
    13     4    23 1   
    14     5     6 1   
    15     5    11 1   
    16     5    14 1   
    17     6     7 2   
    18     7     8 1   
    19     7     9 1   
    20     8    11 1   
    21     9    24 1   
    22     9    25 1   
    23     9    26 1   
    24    10    12 1   
    25    10    14 2   
    26    11    12 1   
    27    12    13 2   
@<TRIPOS>SUBSTRUCTURE
     1 6E3         1 TEMP              0 ****  ****    0 ROOT
