@<TRIPOS>MOLECULE
6E4
   21    20     1     0     0
SMALL
abcg2


@<TRIPOS>ATOM
      1 N01          3.7590    -0.3930    -0.0250 nt         1 6E4      -0.610000
      2 C02          2.6570     0.3610     0.1010 c          1 6E4       0.604100
      3 O03          2.6600     1.5720    -0.0700 o          1 6E4      -0.602100
      4 C04          1.4080    -0.3970     0.5040 c3         1 6E4      -0.162400
      5 C05          0.1360     0.2000    -0.0790 c3         1 6E4      -0.106400
      6 C06         -1.1270    -0.5060     0.4420 c3         1 6E4       0.080500
      7 N07         -1.2550    -1.9090     0.0970 n8         1 6E4      -0.985200
      8 C08         -2.3410     0.2370    -0.1020 c          1 6E4       0.615100
      9 N09         -2.8280     1.1980     0.6940 nt         1 6E4      -0.607000
     10 O10         -2.7970    -0.0140    -1.2080 o          1 6E4      -0.599100
     11 H1           3.7420    -1.3870     0.1200 hn         1 6E4       0.314000
     12 H2           4.6500     0.0320    -0.2230 hn         1 6E4       0.314000
     13 H3           1.5070    -1.4500     0.2300 hc         1 6E4       0.053200
     14 H4           1.3560    -0.3700     1.5980 hc         1 6E4       0.053200
     15 H5           0.0860     1.2610     0.1730 hc         1 6E4       0.070200
     16 H6           0.1570     0.1340    -1.1710 hc         1 6E4       0.070200
     17 H7          -1.1260    -0.4330     1.5350 h1         1 6E4       0.059700
     18 H8          -1.1890    -2.0200    -0.9080 hn         1 6E4       0.405000
     19 H9          -0.4870    -2.4330     0.4940 hn         1 6E4       0.405000
     20 H11         -2.4460     1.3780     1.6070 hn         1 6E4       0.314500
     21 H12         -3.5860     1.7860     0.3850 hn         1 6E4       0.314500
@<TRIPOS>BOND
     1     1     2 1   
     2     1    11 1   
     3     1    12 1   
     4     2     3 2   
     5     2     4 1   
     6     4     5 1   
     7     4    13 1   
     8     4    14 1   
     9     5     6 1   
    10     5    15 1   
    11     5    16 1   
    12     6     7 1   
    13     6     8 1   
    14     6    17 1   
    15     7    18 1   
    16     7    19 1   
    17     8     9 1   
    18     8    10 2   
    19     9    20 1   
    20     9    21 1   
@<TRIPOS>SUBSTRUCTURE
     1 6E4         1 TEMP              0 ****  ****    0 ROOT
