@<TRIPOS>MOLECULE
6E4
   21    20     1     0     0
SMALL
No Charge or Current Charge


@<TRIPOS>ATOM
      1 N01          3.4900    -0.1990    -0.4450 nt         1 6E4      -0.610000
      2 C02          2.6790     0.3370     0.4920 c          1 6E4       0.604100
      3 O03          2.9590     1.4000     1.0180 o          1 6E4      -0.602100
      4 C04          1.4170    -0.4650     0.8320 c3         1 6E4      -0.162400
      5 C05          0.1800     0.0670     0.0550 c3         1 6E4      -0.106400
      6 C06         -1.1710    -0.5870     0.4590 c3         1 6E4       0.080500
      7 N07         -1.1310    -2.0660     0.1970 n8         1 6E4      -0.985200
      8 C08         -2.3950     0.1940    -0.1620 c          1 6E4       0.615100
      9 N09         -2.6640     1.4110     0.3660 nt         1 6E4      -0.607000
     10 O10         -3.0920    -0.2400    -1.0680 o          1 6E4      -0.599100
     11 H1           3.2510    -1.0780    -0.8790 hn         1 6E4       0.314000
     12 H2           4.3330     0.2900    -0.7050 hn         1 6E4       0.314000
     13 H3           1.5710    -1.5140     0.5550 hc         1 6E4       0.053200
     14 H4           1.2220    -0.3780     1.9080 hc         1 6E4       0.053200
     15 H5           0.1100     1.1490     0.2280 hc         1 6E4       0.070200
     16 H6           0.3400    -0.0580    -1.0240 hc         1 6E4       0.070200
     17 H7          -1.2710    -0.4630     1.5470 h1         1 6E4       0.059700
     18 H8          -1.1220    -2.2290    -0.8180 hn         1 6E4       0.405000
     19 H9          -0.2310    -2.4440     0.5150 hn         1 6E4       0.405000
     20 H11         -2.0990     1.7740     1.1200 hn         1 6E4       0.314500
     21 H12         -3.4390     1.9450     0.0030 hn         1 6E4       0.314500
@<TRIPOS>BOND
     1     1     2 1   
     2     1    11 1   
     3     1    12 1   
     4     2     3 2   
     5     2     4 1   
     6     4     5 1   
     7     4    13 1   
     8     4    14 1   
     9     5     6 1   
    10     5    15 1   
    11     5    16 1   
    12     6     7 1   
    13     6     8 1   
    14     6    17 1   
    15     7    18 1   
    16     7    19 1   
    17     8     9 1   
    18     8    10 2   
    19     9    20 1   
    20     9    21 1   
@<TRIPOS>SUBSTRUCTURE
     1 6E4         1 TEMP              0 ****  ****    0 ROOT
