@<TRIPOS>MOLECULE
6E5
   69    73     1     0     0
SMALL
bcc


@<TRIPOS>ATOM
      1 S01        -10.4840    -1.1200    -0.9210 ss         1 6E5      -0.072800
      2 C02        -11.7270    -1.4170    -2.0560 cc         1 6E5      -0.110100
      3 C03        -11.5220    -0.7350    -3.2190 cd         1 6E5      -0.159000
      4 C04        -10.3400     0.0450    -3.1900 cd         1 6E5      -0.092000
      5 C05         -9.6690    -0.0530    -2.0040 cc         1 6E5      -0.143000
      6 C06         -8.4040     0.6070    -1.6500 ce         1 6E5       0.705800
      7 N07         -8.2170     0.7530    -0.2890 nu         1 6E5      -0.770600
      8 N08         -7.6220     0.9600    -2.5910 n2         1 6E5      -0.809100
      9 N1          -0.2370    -0.4070     2.6690 n7         1 6E5      -0.776200
     10 C11         -7.0550     1.2200     0.3320 ca         1 6E5       0.150600
     11 C12         -7.1670     2.0790     1.4250 ca         1 6E5      -0.177000
     12 C13         -6.0270     2.5050     2.0840 ca         1 6E5      -0.103000
     13 C14         -4.7660     2.1100     1.6590 ca         1 6E5      -0.126000
     14 C15         -4.6450     1.2500     0.5730 ca         1 6E5      -0.050300
     15 C16         -5.7900     0.7970    -0.0740 ca         1 6E5      -0.168000
     16 C17         -3.3040     0.8240     0.0440 c3         1 6E5       0.182700
     17 O18         -2.3410     0.8660     1.0580 os         1 6E5      -0.398600
     18 C19         -1.0400     0.6320     0.5780 c3         1 6E5       0.150400
     19 C2          -0.0510     0.7040     1.7220 c5         1 6E5       0.159500
     20 S21          9.6000     1.9800    -0.7710 ss         1 6E5      -0.073800
     21 C22         10.0980     3.1060    -1.9560 cc         1 6E5      -0.110100
     22 C23          9.2580     3.1140    -3.0310 cd         1 6E5      -0.158000
     23 C24          8.1930     2.1900    -2.8940 cd         1 6E5      -0.093000
     24 C25          8.2460     1.4920    -1.7210 cc         1 6E5      -0.142000
     25 C26          7.2910     0.4740    -1.2540 ce         1 6E5       0.700800
     26 N28          6.0960     0.5200    -1.6890 n2         1 6E5      -0.803100
     27 C3           1.3920     0.6050     1.1900 c5         1 6E5      -0.101400
     28 C30          5.9150    -1.1420     0.9480 ca         1 6E5      -0.141000
     29 C31          7.1280    -1.4210     0.3220 ca         1 6E5       0.145600
     30 C32          7.6710    -2.7010     0.4170 ca         1 6E5      -0.173000
     31 C33          7.0010    -3.6850     1.1240 ca         1 6E5      -0.100000
     32 C34          5.7770    -3.4130     1.7210 ca         1 6E5      -0.143000
     33 C35          5.2310    -2.1380     1.6380 ca         1 6E5      -0.060300
     34 C37          3.9330    -1.8170     2.3280 c3         1 6E5       0.183700
     35 O38          3.1530    -1.0040     1.4890 os         1 6E5      -0.396600
     36 C4           2.0700    -0.3810     2.1300 c5         1 6E5       0.110100
     37 C5           0.9020    -1.2980     2.5120 c5         1 6E5       0.108800
     38 H02        -12.5400    -2.0820    -1.8100 h4         1 6E5       0.169000
     39 H03        -12.1920    -0.7870    -4.0650 ha         1 6E5       0.155000
     40 H04         -9.9990     0.6650    -4.0070 ha         1 6E5       0.170000
     41 HN07        -9.0590     0.8560     0.2590 hn         1 6E5       0.432800
     42 HN08        -6.8150     1.4740    -2.2510 hn         1 6E5       0.390400
     43 HN1         -0.2440    -0.0430     3.6110 hn         1 6E5       0.353800
     44 H12         -8.1450     2.4050     1.7580 ha         1 6E5       0.130000
     45 H13         -6.1230     3.1660     2.9360 ha         1 6E5       0.131000
     46 H14         -3.8870     2.4660     2.1800 ha         1 6E5       0.148000
     47 H16         -5.6890     0.0820    -0.8820 ha         1 6E5       0.142000
     48 H17         -3.3800    -0.1840    -0.3900 h1         1 6E5       0.030700
     49 H17A        -3.0230     1.4900    -0.7860 h1         1 6E5       0.030700
     50 H19         -0.9730    -0.3550     0.0960 h1         1 6E5       0.027200
     51 H19A        -0.7740     1.3780    -0.1860 h1         1 6E5       0.027200
     52 H2          -0.2000     1.6520     2.2460 h1         1 6E5       0.056700
     53 H23          9.3980     3.7530    -3.8900 ha         1 6E5       0.156000
     54 H24          7.4220     2.0340    -3.6340 ha         1 6E5       0.170000
     55 HN28         5.5390    -0.2640    -1.3640 hn         1 6E5       0.395400
     56 H3           1.4040     0.1910     0.1760 hc         1 6E5       0.066200
     57 H3'A         1.8900     1.5740     1.1500 hc         1 6E5       0.066200
     58 H30          5.5080    -0.1390     0.9190 ha         1 6E5       0.154000
     59 H32          8.6160    -2.9260    -0.0640 ha         1 6E5       0.132000
     60 H33          7.4260    -4.6770     1.1920 ha         1 6E5       0.134000
     61 H34          5.2490    -4.1950     2.2530 ha         1 6E5       0.133000
     62 H37          3.4160    -2.7500     2.5880 h1         1 6E5       0.032700
     63 H37A         4.1440    -1.3010     3.2760 h1         1 6E5       0.032700
     64 H4           2.4170     0.1400     3.0360 h1         1 6E5       0.031700
     65 H5           1.0650    -1.8730     3.4250 h1         1 6E5       0.060700
     66 H5'A         0.7290    -2.0130     1.6990 h1         1 6E5       0.060700
     67 N27          7.8380    -0.4260    -0.3600 nu         1 6E5      -0.771600
     68 H22         10.9790     3.7070    -1.7970 h4         1 6E5       0.169000
     69 HN27         8.8240    -0.6120    -0.4750 hn         1 6E5       0.432800
@<TRIPOS>BOND
     1     1     2 1   
     2     1     5 1   
     3     2     3 2   
     4     2    38 1   
     5     3     4 1   
     6     3    39 1   
     7     4     5 2   
     8     4    40 1   
     9     5     6 1   
    10     6     7 1   
    11     6     8 2   
    12     7    10 1   
    13     7    41 1   
    14     8    42 1   
    15     9    19 1   
    16     9    37 1   
    17     9    43 1   
    18    10    11 ar  
    19    10    15 ar  
    20    11    12 ar  
    21    11    44 1   
    22    12    13 ar  
    23    12    45 1   
    24    13    14 ar  
    25    13    46 1   
    26    14    15 ar  
    27    14    16 1   
    28    15    47 1   
    29    16    17 1   
    30    16    48 1   
    31    16    49 1   
    32    17    18 1   
    33    18    19 1   
    34    18    50 1   
    35    18    51 1   
    36    19    27 1   
    37    19    52 1   
    38    20    21 1   
    39    20    24 1   
    40    21    22 2   
    41    21    68 1   
    42    22    23 1   
    43    22    53 1   
    44    23    24 2   
    45    23    54 1   
    46    24    25 1   
    47    25    26 2   
    48    25    67 1   
    49    26    55 1   
    50    27    36 1   
    51    27    56 1   
    52    27    57 1   
    53    28    29 ar  
    54    28    33 ar  
    55    28    58 1   
    56    29    30 ar  
    57    29    67 1   
    58    30    31 ar  
    59    30    59 1   
    60    31    32 ar  
    61    31    60 1   
    62    32    33 ar  
    63    32    61 1   
    64    33    34 1   
    65    34    35 1   
    66    34    62 1   
    67    34    63 1   
    68    35    36 1   
    69    36    37 1   
    70    36    64 1   
    71    37    65 1   
    72    37    66 1   
    73    67    69 1   
@<TRIPOS>SUBSTRUCTURE
     1 6E5         1 TEMP              0 ****  ****    0 ROOT
