@<TRIPOS>MOLECULE
6E5
   69    73     1     0     0
SMALL
No Charge or Current Charge


@<TRIPOS>ATOM
      1 S01         -9.5310    -2.1730     1.0090 ss         1 6E5       0.217000
      2 C02        -10.2200    -3.6260     0.2940 cc         1 6E5      -0.237000
      3 C03        -10.0910    -3.6050    -1.0700 cd         1 6E5      -0.141000
      4 C04         -9.4500    -2.4370    -1.5610 cd         1 6E5      -0.074000
      5 C05         -9.0820    -1.5440    -0.5790 cc         1 6E5      -0.287900
      6 C06         -8.4000    -0.2670    -0.7310 ce         1 6E5       0.705800
      7 N07         -8.2220     0.5250     0.3760 nu         1 6E5      -0.964200
      8 N08         -8.0400     0.1500    -1.8740 n2         1 6E5      -0.809100
      9 N1          -0.8720    -0.1580     0.6150 n7         1 6E5      -0.831400
     10 C11         -7.3080     1.5340     0.6860 ca         1 6E5       0.289000
     11 C12         -7.6200     2.4190     1.7310 ca         1 6E5      -0.159000
     12 C13         -6.7290     3.4450     2.0860 ca         1 6E5      -0.085000
     13 C14         -5.5110     3.5850     1.4000 ca         1 6E5      -0.108000
     14 C15         -5.1780     2.6960     0.3610 ca         1 6E5      -0.050300
     15 C16         -6.0790     1.6700     0.0120 ca         1 6E5      -0.150000
     16 C17         -3.8490     2.8370    -0.3710 c3         1 6E5       0.205900
     17 O18         -2.8490     2.0920     0.3420 os         1 6E5      -0.445000
     18 C19         -1.5350     2.1470    -0.2470 c3         1 6E5       0.173600
     19 C2          -0.5650     1.2950     0.6210 c5         1 6E5       0.159500
     20 S21         10.9020    -0.4700    -0.0820 ss         1 6E5       0.216000
     21 C22         12.1500     0.7280     0.2360 cc         1 6E5      -0.237000
     22 C23         11.6300     1.9950     0.2010 cd         1 6E5      -0.140000
     23 C24         10.2390     2.0280    -0.0820 cd         1 6E5      -0.075000
     24 C25          9.6750     0.7860    -0.2730 cc         1 6E5      -0.286900
     25 C26          8.2870     0.4610    -0.5630 ce         1 6E5       0.700800
     26 N28          7.4050     1.3700    -0.6490 n2         1 6E5      -0.803100
     27 C3           0.9000     1.2920     0.1270 c5         1 6E5      -0.101400
     28 C30          5.6920    -1.1250     0.1130 ca         1 6E5      -0.123000
     29 C31          6.7560    -1.5610    -0.7010 ca         1 6E5       0.284000
     30 C32          6.6350    -2.7750    -1.3960 ca         1 6E5      -0.155000
     31 C33          5.4560    -3.5350    -1.3050 ca         1 6E5      -0.082000
     32 C34          4.3930    -3.0860    -0.5060 ca         1 6E5      -0.125000
     33 C35          4.5070    -1.8810     0.2130 ca         1 6E5      -0.060300
     34 C37          3.3630    -1.3980     1.0960 c3         1 6E5       0.206900
     35 O38          2.6240    -0.3930     0.3790 os         1 6E5      -0.443000
     36 C4           1.5020     0.2150     1.0650 c5         1 6E5       0.133300
     37 C5           0.3260    -0.8160     1.2120 c5         1 6E5       0.108800
     38 H02        -10.6620    -4.3800     0.9320 h4         1 6E5       0.151000
     39 H03        -10.4450    -4.4060    -1.7140 ha         1 6E5       0.137000
     40 H04         -9.2670    -2.2660    -2.6190 ha         1 6E5       0.152000
     41 HN07        -8.8880     0.3190     1.1130 hn         1 6E5       0.488000
     42 HN08        -7.6920     1.1020    -1.7190 hn         1 6E5       0.390400
     43 HN1         -1.7210    -0.3460     1.1650 hn         1 6E5       0.409000
     44 H12         -8.5600     2.3200     2.2660 ha         1 6E5       0.112000
     45 H13         -6.9800     4.1310     2.8930 ha         1 6E5       0.113000
     46 H14         -4.8220     4.3790     1.6820 ha         1 6E5       0.130000
     47 H16         -5.7990     0.9680    -0.7660 ha         1 6E5       0.124000
     48 H17         -3.9540     2.4590    -1.3970 h1         1 6E5       0.030700
     49 H17A        -3.5740     3.8980    -0.4290 h1         1 6E5       0.030700
     50 H19         -1.5480     1.7540    -1.2720 h1         1 6E5       0.027200
     51 H19A        -1.1700     3.1820    -0.2780 h1         1 6E5       0.027200
     52 H2          -0.6080     1.6870     1.6490 h1         1 6E5       0.056700
     53 H23         12.2240     2.8880     0.3740 ha         1 6E5       0.138000
     54 H24          9.6720     2.9540    -0.1430 ha         1 6E5       0.152000
     55 HN28         6.5580     0.8990    -0.9800 hn         1 6E5       0.395400
     56 H3           0.9700     1.0060    -0.9300 hc         1 6E5       0.066200
     57 H3'A         1.3850     2.2670     0.2460 hc         1 6E5       0.066200
     58 H30          5.7810    -0.2100     0.6890 ha         1 6E5       0.136000
     59 H32          7.4510    -3.1310    -2.0190 ha         1 6E5       0.114000
     60 H33          5.3670    -4.4700    -1.8540 ha         1 6E5       0.116000
     61 H34          3.4820    -3.6780    -0.4400 ha         1 6E5       0.115000
     62 H37          2.7200    -2.2470     1.3600 h1         1 6E5       0.032700
     63 H37A         3.7720    -0.9840     2.0270 h1         1 6E5       0.032700
     64 H4           1.8170     0.6330     2.0310 h1         1 6E5       0.031700
     65 H5           0.1580    -1.0400     2.2750 h1         1 6E5       0.060700
     66 H5'A         0.5350    -1.7670     0.7020 h1         1 6E5       0.060700
     67 N27          7.9510    -0.8460    -0.8190 nu         1 6E5      -0.965200
     68 H22         13.1660     0.4070     0.4270 h4         1 6E5       0.151000
     69 HN27         8.7410    -1.3940    -1.1410 hn         1 6E5       0.488000
@<TRIPOS>BOND
     1     1     2 1   
     2     1     5 1   
     3     2     3 2   
     4     2    38 1   
     5     3     4 1   
     6     3    39 1   
     7     4     5 2   
     8     4    40 1   
     9     5     6 1   
    10     6     7 1   
    11     6     8 2   
    12     7    10 1   
    13     7    41 1   
    14     8    42 1   
    15     9    19 1   
    16     9    37 1   
    17     9    43 1   
    18    10    11 ar  
    19    10    15 ar  
    20    11    12 ar  
    21    11    44 1   
    22    12    13 ar  
    23    12    45 1   
    24    13    14 ar  
    25    13    46 1   
    26    14    15 ar  
    27    14    16 1   
    28    15    47 1   
    29    16    17 1   
    30    16    48 1   
    31    16    49 1   
    32    17    18 1   
    33    18    19 1   
    34    18    50 1   
    35    18    51 1   
    36    19    27 1   
    37    19    52 1   
    38    20    21 1   
    39    20    24 1   
    40    21    22 2   
    41    21    68 1   
    42    22    23 1   
    43    22    53 1   
    44    23    24 2   
    45    23    54 1   
    46    24    25 1   
    47    25    26 2   
    48    25    67 1   
    49    26    55 1   
    50    27    36 1   
    51    27    56 1   
    52    27    57 1   
    53    28    29 ar  
    54    28    33 ar  
    55    28    58 1   
    56    29    30 ar  
    57    29    67 1   
    58    30    31 ar  
    59    30    59 1   
    60    31    32 ar  
    61    31    60 1   
    62    32    33 ar  
    63    32    61 1   
    64    33    34 1   
    65    34    35 1   
    66    34    62 1   
    67    34    63 1   
    68    35    36 1   
    69    36    37 1   
    70    36    64 1   
    71    37    65 1   
    72    37    66 1   
    73    67    69 1   
@<TRIPOS>SUBSTRUCTURE
     1 6E5         1 TEMP              0 ****  ****    0 ROOT
