@<TRIPOS>MOLECULE
6E6
   65    69     1     0     0
SMALL
bcc


@<TRIPOS>ATOM
      1 C4           6.4250     1.1180     0.2390 ca         1 6E6       0.500600
      2 C5           5.1780     0.5050     0.2870 ca         1 6E6      -0.385400
      3 C6           4.0650     1.3850     0.2390 ca         1 6E6       0.763200
      4 N1           4.2750     2.6990     0.1520 nb         1 6E6      -0.810000
      5 N3           6.6390     2.4310     0.1540 nb         1 6E6      -0.715000
      6 FAE          8.5390    -2.6310    -1.2950 f          1 6E6      -0.234633
      7 CBM          7.4880    -3.3180    -0.8220 c3         1 6E6       0.663900
      8 FAF          6.5390    -3.2680    -1.7640 f          1 6E6      -0.234633
      9 FAG          7.8720    -4.5960    -0.7150 f          1 6E6      -0.234633
     10 CBB          6.5480    -1.3570     0.4020 cc         1 6E6      -0.112600
     11 SAZ          7.6970    -0.0520     0.3050 ss         1 6E6      -0.073900
     12 CAN          5.2680    -0.9160     0.3810 cd         1 6E6      -0.065200
     13 C2           5.5280     3.1400     0.1190 ca         1 6E6       0.704900
     14 NAY          2.8110     0.9260     0.2940 nu         1 6E6      -0.857900
     15 CBI          1.6230     1.7480     0.1730 c6         1 6E6       0.236500
     16 CAQ          1.2660     2.0400    -1.2820 c6         1 6E6      -0.092900
     17 CAS         -0.0360     2.8200    -1.3680 c6         1 6E6       0.170800
     18 CAP          0.4530     1.0650     0.8640 c6         1 6E6      -0.092900
     19 CAR         -0.8190     1.8780     0.6900 c6         1 6E6       0.170800
     20 NBJ         -1.1150     2.1050    -0.7120 n3         1 6E6      -0.727600
     21 CAT         -2.3920     2.7630    -0.8970 c3         1 6E6       0.221100
     22 CBA         -3.5450     1.8860    -0.4860 ca         1 6E6      -0.119300
     23 CAL         -4.4980     2.3310     0.4010 ca         1 6E6      -0.064000
     24 CAJ         -3.6470     0.5840    -1.0310 ca         1 6E6      -0.075000
     25 CAK         -4.6780    -0.2670    -0.7140 ca         1 6E6      -0.154000
     26 CBH         -5.6410     0.1930     0.1910 ca         1 6E6      -0.015200
     27 CBE         -5.5640     1.4860     0.7500 ca         1 6E6      -0.115800
     28 CAM         -6.6720     1.6270     1.6220 cc         1 6E6      -0.111200
     29 CBC         -7.3580     0.4400     1.5630 cd         1 6E6       0.017200
     30 CAH         -8.5320     0.0840     2.2620 ch         1 6E6       0.214500
     31 NAA         -9.4920    -0.2020     2.8340 n1         1 6E6      -0.355800
     32 NBK         -6.7330    -0.4370     0.7060 na         1 6E6      -0.028400
     33 CAV         -7.2120    -1.7500     0.3440 c3         1 6E6       0.008300
     34 CBL         -8.2840    -1.7010    -0.7460 c3         1 6E6       0.124100
     35 OAD         -7.8470    -0.9790    -1.8680 oh         1 6E6      -0.560800
     36 CAO         -8.7300    -3.1140    -1.0790 c3         1 6E6       0.107400
     37 OAB         -9.7830    -3.0530    -2.0070 oh         1 6E6      -0.576800
     38 H1           6.1750    -3.3930     0.8430 hc         1 6E6       0.087200
     39 H2           7.8090    -2.8830     1.2320 hc         1 6E6       0.087200
     40 H3           4.4250    -1.5910     0.4380 ha         1 6E6       0.148000
     41 H4           5.6460     4.2160     0.0510 h5         1 6E6       0.048100
     42 H5           2.6770    -0.0730     0.2760 hn         1 6E6       0.438800
     43 H6           1.8240     2.6960     0.6780 h1         1 6E6       0.083700
     44 H7           2.0660     2.6100    -1.7580 hc         1 6E6       0.054700
     45 H8           1.1660     1.0960    -1.8270 hc         1 6E6       0.054700
     46 H9           0.1120     3.8250    -0.9320 h1         1 6E6       0.037950
     47 H10         -0.3030     2.9720    -2.4170 h1         1 6E6       0.037950
     48 H11          0.3010     0.0680     0.4390 hc         1 6E6       0.054700
     49 H12          0.6620     0.9400     1.9290 hc         1 6E6       0.054700
     50 H13         -1.6520     1.3410     1.1470 h1         1 6E6       0.037950
     51 H14         -0.7240     2.8330     1.2380 h1         1 6E6       0.037950
     52 H16         -2.4510     3.7210    -0.3540 h1         1 6E6       0.039200
     53 H17         -2.4900     3.0060    -1.9600 h1         1 6E6       0.039200
     54 H18         -4.4230     3.3220     0.8340 ha         1 6E6       0.134000
     55 H19         -2.8780     0.2480    -1.7150 ha         1 6E6       0.143000
     56 H20         -4.7250    -1.2580    -1.1460 ha         1 6E6       0.129000
     57 H21         -6.9370     2.4790     2.2280 ha         1 6E6       0.165000
     58 H22         -6.3540    -2.3390     0.0120 h1         1 6E6       0.065200
     59 H23         -7.5960    -2.2470     1.2370 h1         1 6E6       0.065200
     60 H24         -9.1490    -1.1500    -0.3590 h1         1 6E6       0.100700
     61 H25         -7.1760    -1.4920    -2.3330 ho         1 6E6       0.399000
     62 H26         -7.8720    -3.6810    -1.4710 h1         1 6E6       0.020200
     63 H27         -9.0340    -3.6110    -0.1490 h1         1 6E6       0.020200
     64 H28        -10.0890    -3.9490    -2.1700 ho         1 6E6       0.408000
     65 CAU          7.0050    -2.7720     0.5010 c3         1 6E6      -0.076200
@<TRIPOS>BOND
     1     1     2 ar  
     2     1     5 ar  
     3     1    11 1   
     4     2     3 ar  
     5     2    12 1   
     6     3     4 ar  
     7     3    14 1   
     8     4    13 ar  
     9     5    13 ar  
    10     6     7 1   
    11     7     8 1   
    12     7     9 1   
    13     7    65 1   
    14    10    11 1   
    15    10    12 2   
    16    10    65 1   
    17    12    40 1   
    18    13    41 1   
    19    14    15 1   
    20    14    42 1   
    21    15    16 1   
    22    15    18 1   
    23    15    43 1   
    24    16    17 1   
    25    16    44 1   
    26    16    45 1   
    27    17    20 1   
    28    17    46 1   
    29    17    47 1   
    30    18    19 1   
    31    18    48 1   
    32    18    49 1   
    33    19    20 1   
    34    19    50 1   
    35    19    51 1   
    36    20    21 1   
    37    21    22 1   
    38    21    52 1   
    39    21    53 1   
    40    22    23 ar  
    41    22    24 ar  
    42    23    27 ar  
    43    23    54 1   
    44    24    25 ar  
    45    24    55 1   
    46    25    26 ar  
    47    25    56 1   
    48    26    27 ar  
    49    26    32 1   
    50    27    28 1   
    51    28    29 2   
    52    28    57 1   
    53    29    30 1   
    54    29    32 1   
    55    30    31 3   
    56    32    33 1   
    57    33    34 1   
    58    33    58 1   
    59    33    59 1   
    60    34    35 1   
    61    34    36 1   
    62    34    60 1   
    63    35    61 1   
    64    36    37 1   
    65    36    62 1   
    66    36    63 1   
    67    37    64 1   
    68    38    65 1   
    69    39    65 1   
@<TRIPOS>SUBSTRUCTURE
     1 6E6         1 TEMP              0 ****  ****    0 ROOT
