@<TRIPOS>MOLECULE
6E6
   65    69     1     0     0
SMALL
No Charge or Current Charge


@<TRIPOS>ATOM
      1 C4           6.6170     1.2710     0.3360 ca         1 6E6       0.172300
      2 C5           5.3630     0.7090     0.4390 ca         1 6E6      -0.254800
      3 C6           4.2490     1.5580     0.4900 ca         1 6E6       0.434900
      4 N1           4.4120     2.8960     0.4410 nb         1 6E6      -0.284000
      5 N3           6.8100     2.6010     0.2840 nb         1 6E6      -0.189000
      6 FAE          8.2360    -2.6750    -1.7200 f          1 6E6      -0.113333
      7 CBM          7.2930    -3.3170    -0.9940 c3         1 6E6       0.300000
      8 FAF          6.1260    -3.2600    -1.6770 f          1 6E6      -0.113333
      9 FAG          7.6550    -4.6170    -0.9000 f          1 6E6      -0.113333
     10 CBB          6.7250    -1.2430     0.3940 cc         1 6E6      -0.112600
     11 SAZ          7.9350     0.0710     0.2810 ss         1 6E6      -0.073900
     12 CAN          5.4420    -0.7370     0.4740 cd         1 6E6      -0.115200
     13 C2           5.6840     3.3500     0.3400 ca         1 6E6       0.178900
     14 NAY          2.9570     1.0530     0.5930 nu         1 6E6      -0.913100
     15 CBI          1.7150     1.8160     0.3700 c6         1 6E6       0.236500
     16 CAQ          1.4870     2.0460    -1.1400 c6         1 6E6      -0.092900
     17 CAS          0.1390     2.7620    -1.3800 c6         1 6E6       0.170800
     18 CAP          0.5200     1.0420     0.9650 c6         1 6E6      -0.092900
     19 CAR         -0.8040     1.7830     0.6750 c6         1 6E6       0.170800
     20 NBJ         -0.9950     2.0030    -0.7870 n3         1 6E6      -0.727600
     21 CAT         -2.3050     2.6170    -1.1120 c3         1 6E6       0.221100
     22 CBA         -3.4940     1.7600    -0.6910 ca         1 6E6      -0.119300
     23 CAL         -4.3850     2.2170     0.3070 ca         1 6E6      -0.046000
     24 CAJ         -3.7100     0.4990    -1.3010 ca         1 6E6      -0.057000
     25 CAK         -4.8040    -0.3080    -0.9220 ca         1 6E6      -0.136000
     26 CBH         -5.6700     0.1690     0.0760 ca         1 6E6      -0.015200
     27 CBE         -5.4590     1.3900     0.6590 ca         1 6E6      -0.115800
     28 CAM         -6.5040     1.5960     1.6170 cc         1 6E6      -0.161200
     29 CBC         -7.3200     0.4720     1.5790 cd         1 6E6       0.017200
     30 CAH         -8.4860     0.2220     2.3570 ch         1 6E6       0.303700
     31 NAA         -9.4490    -0.0050     2.9770 n1         1 6E6      -0.445000
     32 NBK         -6.8040    -0.4320     0.6160 na         1 6E6      -0.057700
     33 CAV         -7.2940    -1.7800     0.2600 c3         1 6E6       0.037600
     34 CBL         -8.4690    -1.7750    -0.7480 c3         1 6E6       0.147300
     35 OAD         -8.0340    -1.2730    -2.0230 oh         1 6E6      -0.623000
     36 CAO         -9.0670    -3.1900    -0.9530 c3         1 6E6       0.130600
     37 OAB        -10.1080    -3.1480    -1.9430 oh         1 6E6      -0.639000
     38 H1           6.4180    -3.2800     0.9810 hc         1 6E6       0.087200
     39 H2           8.1000    -2.7910     0.9390 hc         1 6E6       0.087200
     40 H3           4.5740    -1.3870     0.5520 ha         1 6E6       0.198000
     41 H4           5.8160     4.4300     0.3000 h5         1 6E6       0.048100
     42 H5           2.8950     0.0380     0.6220 hn         1 6E6       0.494000
     43 H6           1.7670     2.7940     0.8770 h1         1 6E6       0.083700
     44 H7           2.3020     2.6480    -1.5630 hc         1 6E6       0.054700
     45 H8           1.4910     1.0860    -1.6750 hc         1 6E6       0.054700
     46 H9           0.1880     3.7740    -0.9490 h1         1 6E6       0.037950
     47 H10         -0.0070     2.8800    -2.4640 h1         1 6E6       0.037950
     48 H11          0.4700     0.0310     0.5390 hc         1 6E6       0.054700
     49 H12          0.6470     0.9260     2.0500 hc         1 6E6       0.054700
     50 H13         -1.6300     1.1860     1.0900 h1         1 6E6       0.037950
     51 H14         -0.8030     2.7460     1.2090 h1         1 6E6       0.037950
     52 H16         -2.3840     3.6050    -0.6380 h1         1 6E6       0.039200
     53 H17         -2.3780     2.7800    -2.1960 h1         1 6E6       0.039200
     54 H18         -4.2440     3.1800     0.7900 ha         1 6E6       0.116000
     55 H19         -3.0230     0.1470    -2.0680 ha         1 6E6       0.125000
     56 H20         -4.9650    -1.2700    -1.3990 ha         1 6E6       0.111000
     57 H21         -6.6490     2.4600     2.2620 ha         1 6E6       0.215000
     58 H22         -6.4670    -2.3770    -0.1430 h1         1 6E6       0.065200
     59 H23         -7.6220    -2.2750     1.1820 h1         1 6E6       0.065200
     60 H24         -9.2660    -1.1350    -0.3400 h1         1 6E6       0.100700
     61 H25         -8.6970    -1.6130    -2.6660 ho         1 6E6       0.438000
     62 H26         -8.2730    -3.8820    -1.2640 h1         1 6E6       0.020200
     63 H27         -9.4690    -3.5510     0.0040 h1         1 6E6       0.020200
     64 H28        -10.4900    -4.0530    -2.0010 ho         1 6E6       0.447000
     65 CAU          7.1450    -2.6910     0.4100 c3         1 6E6      -0.076200
@<TRIPOS>BOND
     1     1     2 ar  
     2     1     5 ar  
     3     1    11 1   
     4     2     3 ar  
     5     2    12 1   
     6     3     4 ar  
     7     3    14 1   
     8     4    13 ar  
     9     5    13 ar  
    10     6     7 1   
    11     7     8 1   
    12     7     9 1   
    13     7    65 1   
    14    10    11 1   
    15    10    12 2   
    16    10    65 1   
    17    12    40 1   
    18    13    41 1   
    19    14    15 1   
    20    14    42 1   
    21    15    16 1   
    22    15    18 1   
    23    15    43 1   
    24    16    17 1   
    25    16    44 1   
    26    16    45 1   
    27    17    20 1   
    28    17    46 1   
    29    17    47 1   
    30    18    19 1   
    31    18    48 1   
    32    18    49 1   
    33    19    20 1   
    34    19    50 1   
    35    19    51 1   
    36    20    21 1   
    37    21    22 1   
    38    21    52 1   
    39    21    53 1   
    40    22    23 ar  
    41    22    24 ar  
    42    23    27 ar  
    43    23    54 1   
    44    24    25 ar  
    45    24    55 1   
    46    25    26 ar  
    47    25    56 1   
    48    26    27 ar  
    49    26    32 1   
    50    27    28 1   
    51    28    29 2   
    52    28    57 1   
    53    29    30 1   
    54    29    32 1   
    55    30    31 3   
    56    32    33 1   
    57    33    34 1   
    58    33    58 1   
    59    33    59 1   
    60    34    35 1   
    61    34    36 1   
    62    34    60 1   
    63    35    61 1   
    64    36    37 1   
    65    36    62 1   
    66    36    63 1   
    67    37    64 1   
    68    38    65 1   
    69    39    65 1   
@<TRIPOS>SUBSTRUCTURE
     1 6E6         1 TEMP              0 ****  ****    0 ROOT
