@<TRIPOS>MOLECULE
6E7
   42    44     1     0     0
SMALL
No Charge or Current Charge


@<TRIPOS>ATOM
      1 C10          2.3080    -0.3890     0.0080 cp         1 6E7       0.326000
      2 C13         -0.0880    -1.8010     0.0350 ca         1 6E7      -0.174000
      3 C20         -5.0480    -0.9290     0.0290 c3         1 6E7      -0.050100
      4 C21         -6.4560    -0.3500     0.0210 ca         1 6E7      -0.077300
      5 C22         -7.1090    -0.0560     1.2340 ca         1 6E7      -0.104500
      6 C24         -9.0590     0.7340     0.0080 ca         1 6E7      -0.113000
      7 C26         -7.1130    -0.0950    -1.1980 ca         1 6E7      -0.104500
      8 O01          7.4320    -1.6170     0.0190 o          1 6E7      -0.710000
      9 O03          8.4720     0.2640    -0.0130 o          1 6E7      -0.710000
     10 C04          6.1140     0.3400    -0.0100 ca         1 6E7      -0.122600
     11 C05          6.0480     1.7500    -0.0330 ca         1 6E7      -0.118000
     12 C06          4.7980     2.3840    -0.0410 ca         1 6E7       0.291900
     13 N07          3.6280     1.7070    -0.0280 nb         1 6E7      -0.702000
     14 C08          3.6450     0.3450    -0.0060 cp         1 6E7       0.222000
     15 C09          4.8840    -0.3580     0.0030 ca         1 6E7      -0.079000
     16 C11          1.0690     0.3090    -0.0010 ca         1 6E7      -0.088000
     17 C12         -0.1590    -0.3880     0.0120 ca         1 6E7      -0.130600
     18 C14          1.1670    -2.4300     0.0430 ca         1 6E7       0.331900
     19 N15          2.3320    -1.7490     0.0300 nb         1 6E7      -0.649000
     20 C16         -1.4680     0.3740     0.0020 c          1 6E7       0.614700
     21 O17         -1.5130     1.5970    -0.0180 o          1 6E7      -0.595100
     22 N18         -2.6190    -0.3820     0.0160 ns         1 6E7      -0.509900
     23 C19         -3.9730     0.1740     0.0090 c3         1 6E7       0.101000
     24 C23         -8.4070     0.4840     1.2270 ca         1 6E7      -0.110500
     25 C25         -8.4110     0.4450    -1.2050 ca         1 6E7      -0.110500
     26 H1          -0.9780    -2.4220     0.0460 ha         1 6E7       0.107000
     27 H2          -4.9020    -1.5560     0.9170 hc         1 6E7       0.050700
     28 H3          -4.9050    -1.5850    -0.8390 hc         1 6E7       0.050700
     29 H4          -6.6110    -0.2440     2.1830 ha         1 6E7       0.113000
     30 H5         -10.0630     1.1520     0.0020 ha         1 6E7       0.109000
     31 H6          -6.6180    -0.3150    -2.1420 ha         1 6E7       0.113000
     32 H8           6.9510     2.3550    -0.0440 ha         1 6E7       0.136000
     33 H9           4.7270     3.4710    -0.0580 h4         1 6E7      -0.005900
     34 H10          4.8830    -1.4440     0.0210 ha         1 6E7       0.156000
     35 H11          1.0720     1.3950    -0.0190 ha         1 6E7       0.165000
     36 H12          1.2420    -3.5170     0.0610 h4         1 6E7       0.013100
     37 H13         -2.5050    -1.3870     0.0320 hn         1 6E7       0.313500
     38 H14         -4.1000     0.7910    -0.8910 h1         1 6E7       0.055700
     39 H15         -4.0970     0.8200     0.8880 h1         1 6E7       0.055700
     40 H16         -8.9070     0.7090     2.1670 ha         1 6E7       0.110000
     41 H17         -8.9140     0.6390    -2.1500 ha         1 6E7       0.110000
     42 C02          7.4420    -0.3950    -0.0010 c          1 6E7       0.715600
@<TRIPOS>BOND
     1     1    14 1   
     2     1    16 ar  
     3     1    19 ar  
     4     2    17 ar  
     5     2    18 ar  
     6     2    26 1   
     7     3     4 1   
     8     3    23 1   
     9     3    27 1   
    10     3    28 1   
    11     4     5 ar  
    12     4     7 ar  
    13     5    24 ar  
    14     5    29 1   
    15     6    24 ar  
    16     6    25 ar  
    17     6    30 1   
    18     7    25 ar  
    19     7    31 1   
    20     8    42 1   
    21     9    42 1   
    22    10    11 ar  
    23    10    15 ar  
    24    10    42 1   
    25    11    12 ar  
    26    11    32 1   
    27    12    13 ar  
    28    12    33 1   
    29    13    14 ar  
    30    14    15 ar  
    31    15    34 1   
    32    16    17 ar  
    33    16    35 1   
    34    17    20 1   
    35    18    19 ar  
    36    18    36 1   
    37    20    21 2   
    38    20    22 1   
    39    22    23 1   
    40    22    37 1   
    41    23    38 1   
    42    23    39 1   
    43    24    40 1   
    44    25    41 1   
@<TRIPOS>SUBSTRUCTURE
     1 6E7         1 TEMP              0 ****  ****    0 ROOT
