@<TRIPOS>MOLECULE
6E7
   42    44     1     0     0
SMALL
abcg2


@<TRIPOS>ATOM
      1 C10          2.2210    -0.4390    -0.1020 cp         1 6E7       0.326000
      2 C13         -0.0840    -1.8940    -0.1980 ca         1 6E7      -0.174000
      3 C20         -4.9260    -0.9290     0.0790 c3         1 6E7      -0.050100
      4 C21         -6.3110    -0.3450     0.0800 ca         1 6E7      -0.077300
      5 C22         -6.9660    -0.0680     1.2770 ca         1 6E7      -0.104500
      6 C24         -8.8530     0.8280     0.0810 ca         1 6E7      -0.113000
      7 C26         -6.9480    -0.0260    -1.1170 ca         1 6E7      -0.104500
      8 O01          7.2430    -1.5510     0.1870 o          1 6E7      -0.710000
      9 O03          8.2460     0.4410     0.2580 o          1 6E7      -0.710000
     10 C04          5.8960     0.3830     0.1060 ca         1 6E7      -0.122600
     11 C05          5.7910     1.7680     0.0890 ca         1 6E7      -0.118000
     12 C06          4.5310     2.3430     0.0070 ca         1 6E7       0.291900
     13 N07          3.4110     1.6400    -0.0540 nb         1 6E7      -0.702000
     14 C08          3.4990     0.3120    -0.0350 cp         1 6E7       0.222000
     15 C09          4.7200    -0.3520     0.0430 ca         1 6E7      -0.079000
     16 C11          1.0050     0.2280    -0.2230 ca         1 6E7      -0.088000
     17 C12         -0.1690    -0.5080    -0.2590 ca         1 6E7      -0.130600
     18 C14          1.1740    -2.4690    -0.0970 ca         1 6E7       0.331900
     19 N15          2.2940    -1.7670    -0.0440 nb         1 6E7      -0.649000
     20 C16         -1.4700     0.2250    -0.4030 c          1 6E7       0.614700
     21 O17         -1.5160     1.3060    -0.9710 o          1 6E7      -0.595100
     22 N18         -2.5390    -0.3870     0.1250 ns         1 6E7      -0.509900
     23 C19         -3.8730     0.1750     0.0980 c3         1 6E7       0.101000
     24 C23         -8.2280     0.5130     1.2800 ca         1 6E7      -0.110500
     25 C25         -8.2100     0.5550    -1.1190 ca         1 6E7      -0.110500
     26 H1          -0.9560    -2.5310    -0.2510 ha         1 6E7       0.107000
     27 H2          -4.7940    -1.5760     0.9510 hc         1 6E7       0.050700
     28 H3          -4.7770    -1.5520    -0.8060 hc         1 6E7       0.050700
     29 H4          -6.4880    -0.3120     2.2190 ha         1 6E7       0.113000
     30 H5          -9.8360     1.2810     0.0820 ha         1 6E7       0.109000
     31 H6          -6.4550    -0.2370    -2.0590 ha         1 6E7       0.113000
     32 H8           6.6710     2.3940     0.1390 ha         1 6E7       0.136000
     33 H9           4.4240     3.4220    -0.0090 h4         1 6E7      -0.005900
     34 H10          4.7520    -1.4320     0.0530 ha         1 6E7       0.156000
     35 H11          0.9860     1.3070    -0.2770 ha         1 6E7       0.165000
     36 H12          1.2750    -3.5470    -0.0600 h4         1 6E7       0.013100
     37 H13         -2.3960    -1.1920     0.7150 hn         1 6E7       0.313500
     38 H14         -3.9700     0.7990    -0.7900 h1         1 6E7       0.055700
     39 H15         -4.0290     0.8250     0.9650 h1         1 6E7       0.055700
     40 H16         -8.7230     0.7170     2.2210 ha         1 6E7       0.110000
     41 H17         -8.6910     0.7920    -2.0590 ha         1 6E7       0.110000
     42 C02          7.2570    -0.3080     0.1920 c          1 6E7       0.715600
@<TRIPOS>BOND
     1     1    14 1   
     2     1    16 ar  
     3     1    19 ar  
     4     2    17 ar  
     5     2    18 ar  
     6     2    26 1   
     7     3     4 1   
     8     3    23 1   
     9     3    27 1   
    10     3    28 1   
    11     4     5 ar  
    12     4     7 ar  
    13     5    24 ar  
    14     5    29 1   
    15     6    24 ar  
    16     6    25 ar  
    17     6    30 1   
    18     7    25 ar  
    19     7    31 1   
    20     8    42 1   
    21     9    42 1   
    22    10    11 ar  
    23    10    15 ar  
    24    10    42 1   
    25    11    12 ar  
    26    11    32 1   
    27    12    13 ar  
    28    12    33 1   
    29    13    14 ar  
    30    14    15 ar  
    31    15    34 1   
    32    16    17 ar  
    33    16    35 1   
    34    17    20 1   
    35    18    19 ar  
    36    18    36 1   
    37    20    21 2   
    38    20    22 1   
    39    22    23 1   
    40    22    37 1   
    41    23    38 1   
    42    23    39 1   
    43    24    40 1   
    44    25    41 1   
@<TRIPOS>SUBSTRUCTURE
     1 6E7         1 TEMP              0 ****  ****    0 ROOT
