@<TRIPOS>MOLECULE
6E8
   28    29     1     0     0
SMALL
No Charge or Current Charge


@<TRIPOS>ATOM
      1 C10          2.6630     1.5680     0.0460 cc         1 6E8       0.315900
      2 N12          0.5430     1.1360     0.0190 n          1 6E8       0.126000
      3 C13         -0.8490     1.1210     0.0050 c          1 6E8       0.562000
      4 C15          3.6560    -0.7450     0.0270 cg         1 6E8       0.365000
      5 C01         -3.6220     0.2490     1.2550 c3         1 6E8      -0.089600
      6 C03         -3.5960     0.2810    -1.3200 c3         1 6E8      -0.089600
      7 C04         -1.4420    -0.2660    -0.0180 cc         1 6E8      -0.267400
      8 C05         -0.6650    -1.4400    -0.0240 cd         1 6E8       0.177800
      9 C06         -1.2110    -2.8470    -0.0470 c3         1 6E8      -0.070900
     10 N07          0.7360    -1.3190    -0.0090 na         1 6E8      -0.788000
     11 C08          1.2280    -0.0310     0.0120 cd         1 6E8       0.286000
     12 C09          2.5660     0.1590     0.0280 cc         1 6E8      -0.210000
     13 N11          1.4860     2.1920     0.0420 nd         1 6E8      -0.470800
     14 O14         -1.4950     2.1640     0.0120 o          1 6E8      -0.458000
     15 N16          4.5360    -1.5120     0.0270 n1         1 6E8      -0.472000
     16 H1           3.5670     2.1620     0.0620 h4         1 6E8       0.052100
     17 H2          -4.6950     0.0240     1.2740 hc         1 6E8       0.041867
     18 H3          -3.1660    -0.2070     2.1420 hc         1 6E8       0.041867
     19 H4          -3.5110     1.3360     1.3320 hc         1 6E8       0.041867
     20 H5          -3.2930    -1.3600    -0.0490 hc         1 6E8       0.036700
     21 H6          -3.4840     1.3690    -1.3680 hc         1 6E8       0.041867
     22 H7          -3.1230    -0.1540    -2.2090 hc         1 6E8       0.041867
     23 H8          -4.6680     0.0560    -1.3660 hc         1 6E8       0.041867
     24 H9          -1.8190    -3.0170    -0.9430 hc         1 6E8       0.065367
     25 H10         -0.4130    -3.5990    -0.0480 hc         1 6E8       0.065367
     26 H11         -1.8370    -3.0390     0.8320 hc         1 6E8       0.065367
     27 H12          1.3520    -2.1310    -0.0120 hn         1 6E8       0.532000
     28 C02         -2.9760    -0.3130    -0.0330 c3         1 6E8       0.012500
@<TRIPOS>BOND
     1     1    12 1   
     2     1    13 2   
     3     1    16 1   
     4     2     3 1   
     5     2    11 1   
     6     2    13 1   
     7     3     7 1   
     8     3    14 2   
     9     4    12 1   
    10     4    15 3   
    11     5    17 1   
    12     5    18 1   
    13     5    19 1   
    14     5    28 1   
    15     6    21 1   
    16     6    22 1   
    17     6    23 1   
    18     6    28 1   
    19     7     8 2   
    20     7    28 1   
    21     8     9 1   
    22     8    10 1   
    23     9    24 1   
    24     9    25 1   
    25     9    26 1   
    26    10    11 1   
    27    10    27 1   
    28    11    12 2   
    29    20    28 1   
@<TRIPOS>SUBSTRUCTURE
     1 6E8         1 TEMP              0 ****  ****    0 ROOT
