@<TRIPOS>MOLECULE
6E8
   28    29     1     0     0
SMALL
bcc


@<TRIPOS>ATOM
      1 C10          2.5900     1.6090     0.0360 cc         1 6E8       0.381200
      2 N12          0.5850     0.9630     0.0150 n          1 6E8       0.075300
      3 C13         -0.8230     1.0260     0.0060 c          1 6E8       0.637500
      4 C15          3.7630    -0.6490     0.0200 cg         1 6E8       0.275800
      5 C01         -3.5970     0.2400     1.2370 c3         1 6E8      -0.089600
      6 C03         -3.5670     0.2910    -1.2970 c3         1 6E8      -0.089600
      7 C04         -1.4600    -0.2730    -0.0150 cc         1 6E8      -0.267400
      8 C05         -0.7060    -1.4130    -0.0180 cd         1 6E8       0.177800
      9 C06         -1.2700    -2.7980    -0.0390 c3         1 6E8      -0.070900
     10 N07          0.6580    -1.3530    -0.0070 na         1 6E8      -0.594400
     11 C08          1.3030    -0.1780     0.0080 cd         1 6E8       0.198300
     12 C09          2.6400     0.1940     0.0210 cc         1 6E8      -0.275300
     13 N11          1.3670     2.0620     0.0330 nd         1 6E8      -0.470800
     14 O14         -1.3630     2.1100     0.0160 o          1 6E8      -0.533500
     15 N16          4.6860    -1.3420     0.0200 n1         1 6E8      -0.382800
     16 H1           3.4320     2.2840     0.0500 h4         1 6E8       0.052100
     17 H2          -4.6730     0.0590     1.2370 hc         1 6E8       0.041867
     18 H3          -3.1800    -0.2310     2.1280 hc         1 6E8       0.041867
     19 H4          -3.4430     1.3140     1.3170 hc         1 6E8       0.041867
     20 H5          -3.2490    -1.3910    -0.0630 hc         1 6E8       0.036700
     21 H6          -3.4170     1.3690    -1.3290 hc         1 6E8       0.041867
     22 H7          -3.1270    -0.1400    -2.1970 hc         1 6E8       0.041867
     23 H8          -4.6420     0.1060    -1.3320 hc         1 6E8       0.041867
     24 H9          -1.8240    -2.9750    -0.9610 hc         1 6E8       0.065367
     25 H10         -0.4860    -3.5490     0.0270 hc         1 6E8       0.065367
     26 H11         -1.9530    -2.9540     0.7940 hc         1 6E8       0.065367
     27 H12          1.1960    -2.2070    -0.0030 hn         1 6E8       0.476800
     28 C02         -2.9720    -0.3360    -0.0350 c3         1 6E8       0.012500
@<TRIPOS>BOND
     1     1    12 1   
     2     1    13 2   
     3     1    16 1   
     4     2     3 1   
     5     2    11 1   
     6     2    13 1   
     7     3     7 1   
     8     3    14 2   
     9     4    12 1   
    10     4    15 3   
    11     5    17 1   
    12     5    18 1   
    13     5    19 1   
    14     5    28 1   
    15     6    21 1   
    16     6    22 1   
    17     6    23 1   
    18     6    28 1   
    19     7     8 2   
    20     7    28 1   
    21     8     9 1   
    22     8    10 1   
    23     9    24 1   
    24     9    25 1   
    25     9    26 1   
    26    10    11 1   
    27    10    27 1   
    28    11    12 2   
    29    20    28 1   
@<TRIPOS>SUBSTRUCTURE
     1 6E8         1 TEMP              0 ****  ****    0 ROOT
