@<TRIPOS>MOLECULE
6E9
   40    42     1     0     0
SMALL
No Charge or Current Charge


@<TRIPOS>ATOM
      1 N1          -5.0290     0.5510     0.1440 ns         1 6E9      -0.390100
      2 C2           3.7810    -0.0000     0.7040 ca         1 6E9      -0.161000
      3 C4          -0.9330     0.2660    -0.8440 ca         1 6E9      -0.274500
      4 C5          -1.5900     1.5100    -0.9340 ca         1 6E9       0.006000
      5 C6          -2.9540     1.6120    -0.6070 ca         1 6E9      -0.151000
      6 C7          -3.6610     0.4730    -0.1910 ca         1 6E9       0.086600
      7 C8          -5.8330    -0.4930     0.5670 c          1 6E9       0.489000
      8 C9          -5.0930    -1.9150     0.6720 c          1 6E9       0.490000
      9 C10         -3.0090    -0.7720    -0.0990 ca         1 6E9       0.007600
     10 C11         -1.6460    -0.8790    -0.4250 ca         1 6E9      -0.026000
     11 C12          0.8730     0.4600     1.4530 c3         1 6E9       0.185100
     12 C13          3.4730     2.0760    -0.5110 ca         1 6E9      -0.104000
     13 C14          4.8650     2.2600    -0.5570 ca         1 6E9      -0.068000
     14 C15          5.7180     1.3090     0.0280 ca         1 6E9      -0.186000
     15 O1           1.2100    -1.2550    -1.3510 o          1 6E9      -0.533000
     16 S            0.8190     0.1560    -1.2550 sy         1 6E9       1.151600
     17 O4           1.1150     1.1120    -2.3270 o          1 6E9      -0.533000
     18 N            1.5300     0.7720     0.1680 nh         1 6E9      -0.758300
     19 C3           2.9220     0.9430     0.1130 ca         1 6E9       0.268000
     20 C1           5.1730     0.1720     0.6630 ca         1 6E9       0.152100
     21 O            5.9590    -0.7950     1.2570 os         1 6E9      -0.338100
     22 C            7.3950    -0.7140     1.2720 c3         1 6E9       0.148900
     23 O3          -7.0180    -0.3240     0.8350 o          1 6E9      -0.472000
     24 N2          -3.7530    -1.8980     0.3250 ns         1 6E9      -0.389100
     25 O2          -5.6530    -2.9460     1.0290 o          1 6E9      -0.478000
     26 H1          -5.4740     1.4580     0.0700 hn         1 6E9       0.336500
     27 H2           3.3680    -0.8790     1.1880 ha         1 6E9       0.138000
     28 H3          -1.0460     2.4000    -1.2500 ha         1 6E9       0.140000
     29 H4          -3.4550     2.5750    -0.6760 ha         1 6E9       0.128000
     30 H5          -1.1470    -1.8440    -0.3500 ha         1 6E9       0.150000
     31 H6           0.6350    -0.6100     1.5260 h1         1 6E9       0.051700
     32 H7           1.5290     0.7230     2.2940 h1         1 6E9       0.051700
     33 H8          -0.0510     1.0410     1.5670 h1         1 6E9       0.051700
     34 H9           2.8170     2.8180    -0.9570 ha         1 6E9       0.126000
     35 H10          5.2810     3.1400    -1.0440 ha         1 6E9       0.117000
     36 H11          6.7910     1.4720    -0.0190 ha         1 6E9       0.121000
     37 H12          7.7960    -0.7020     0.2500 h1         1 6E9       0.043033
     38 H13          7.7300     0.1920     1.7930 h1         1 6E9       0.043033
     39 H14          7.8190    -1.5820     1.7920 h1         1 6E9       0.043033
     40 H15         -3.2670    -2.7860     0.3840 hn         1 6E9       0.338500
@<TRIPOS>BOND
     1     1     6 1   
     2     1     7 1   
     3     1    26 1   
     4     2    19 ar  
     5     2    20 ar  
     6     2    27 1   
     7     3     4 ar  
     8     3    10 ar  
     9     3    16 1   
    10     4     5 ar  
    11     4    28 1   
    12     5     6 ar  
    13     5    29 1   
    14     6     9 ar  
    15     7     8 1   
    16     7    23 2   
    17     8    24 1   
    18     8    25 2   
    19     9    10 ar  
    20     9    24 1   
    21    10    30 1   
    22    11    18 1   
    23    11    31 1   
    24    11    32 1   
    25    11    33 1   
    26    12    13 ar  
    27    12    19 ar  
    28    12    34 1   
    29    13    14 ar  
    30    13    35 1   
    31    14    20 ar  
    32    14    36 1   
    33    15    16 2   
    34    16    17 2   
    35    16    18 1   
    36    18    19 1   
    37    20    21 1   
    38    21    22 1   
    39    22    37 1   
    40    22    38 1   
    41    22    39 1   
    42    24    40 1   
@<TRIPOS>SUBSTRUCTURE
     1 6E9         1 TEMP              0 ****  ****    0 ROOT
