@<TRIPOS>MOLECULE
6E9
   40    42     1     0     0
SMALL
bcc


@<TRIPOS>ATOM
      1 N1          -4.8710     0.8980    -0.3080 ns         1 6E9      -0.457100
      2 C2           3.9070    -0.1100     0.6330 ca         1 6E9      -0.179000
      3 C4          -0.8680    -0.1100    -0.4840 ca         1 6E9      -0.274500
      4 C5          -1.2440     1.2000    -0.7660 ca         1 6E9      -0.012000
      5 C6          -2.5780     1.5420    -0.7050 ca         1 6E9      -0.169000
      6 C7          -3.5310     0.5840    -0.3710 ca         1 6E9       0.086600
      7 C8          -5.8640     0.0330     0.0090 c          1 6E9       0.631500
      8 C9          -5.4360    -1.3940     0.3270 c          1 6E9       0.632500
      9 C10         -3.1390    -0.7250    -0.0890 ca         1 6E9       0.007600
     10 C11         -1.7980    -1.0760    -0.1480 ca         1 6E9      -0.044000
     11 C12          1.1640    -0.0370     1.9600 c3         1 6E9       0.185100
     12 C13          3.1140     2.0520    -0.0890 ca         1 6E9      -0.122000
     13 C14          4.4250     2.4490    -0.2830 ca         1 6E9      -0.086000
     14 C15          5.4860     1.5880    -0.0230 ca         1 6E9      -0.204000
     15 O1           0.9650    -1.9730    -0.3500 o          1 6E9      -0.603800
     16 S            0.8380    -0.5460    -0.6180 sy         1 6E9       1.293200
     17 O4           1.3670    -0.0240    -1.8660 o          1 6E9      -0.603800
     18 N            1.5100     0.3690     0.6000 nh         1 6E9      -0.619900
     19 C3           2.8660     0.7650     0.3730 ca         1 6E9       0.129600
     20 C1           5.2280     0.3000     0.4410 ca         1 6E9       0.152100
     21 O            6.1750    -0.6110     0.7240 os         1 6E9      -0.314900
     22 C            7.5300    -0.2660     0.5130 c3         1 6E9       0.125700
     23 O3          -7.0330     0.3390     0.0500 o          1 6E9      -0.547500
     24 N2          -4.1110    -1.6500     0.2470 ns         1 6E9      -0.456100
     25 O2          -6.2670    -2.2210     0.6280 o          1 6E9      -0.553500
     26 H1          -5.1490     1.8480    -0.5260 hn         1 6E9       0.336500
     27 H2           3.7120    -1.1150     0.9900 ha         1 6E9       0.156000
     28 H3          -0.5100     1.9500    -1.0240 ha         1 6E9       0.158000
     29 H4          -2.8910     2.5540    -0.9230 ha         1 6E9       0.146000
     30 H5          -1.5000    -2.0920     0.0760 ha         1 6E9       0.168000
     31 H6           1.6530    -0.9600     2.2730 h1         1 6E9       0.051700
     32 H7           1.4590     0.7640     2.6330 h1         1 6E9       0.051700
     33 H8           0.0860    -0.1620     2.0510 h1         1 6E9       0.051700
     34 H9           2.2900     2.7250    -0.2830 ha         1 6E9       0.144000
     35 H10          4.6380     3.4470    -0.6410 ha         1 6E9       0.135000
     36 H11          6.4960     1.9380    -0.1850 ha         1 6E9       0.139000
     37 H12          7.7300    -0.0220    -0.5340 h1         1 6E9       0.043033
     38 H13          7.8390     0.5770     1.1370 h1         1 6E9       0.043033
     39 H14          8.1170    -1.1380     0.7880 h1         1 6E9       0.043033
     40 H15         -3.8160    -2.5950     0.4600 hn         1 6E9       0.338500
@<TRIPOS>BOND
     1     1     6 1   
     2     1     7 1   
     3     1    26 1   
     4     2    19 ar  
     5     2    20 ar  
     6     2    27 1   
     7     3     4 ar  
     8     3    10 ar  
     9     3    16 1   
    10     4     5 ar  
    11     4    28 1   
    12     5     6 ar  
    13     5    29 1   
    14     6     9 ar  
    15     7     8 1   
    16     7    23 2   
    17     8    24 1   
    18     8    25 2   
    19     9    10 ar  
    20     9    24 1   
    21    10    30 1   
    22    11    18 1   
    23    11    31 1   
    24    11    32 1   
    25    11    33 1   
    26    12    13 ar  
    27    12    19 ar  
    28    12    34 1   
    29    13    14 ar  
    30    13    35 1   
    31    14    20 ar  
    32    14    36 1   
    33    15    16 2   
    34    16    17 2   
    35    16    18 1   
    36    18    19 1   
    37    20    21 1   
    38    21    22 1   
    39    22    37 1   
    40    22    38 1   
    41    22    39 1   
    42    24    40 1   
@<TRIPOS>SUBSTRUCTURE
     1 6E9         1 TEMP              0 ****  ****    0 ROOT
