@<TRIPOS>MOLECULE
6EA
   51    55     1     0     0
SMALL
No Charge or Current Charge


@<TRIPOS>ATOM
      1 N1           8.6040     2.1710     0.1190 nb         1 6EA      -0.655000
      2 C2           8.4130     0.9270    -0.3740 ca         1 6EA       0.327900
      3 C3           7.1530     0.3060    -0.4210 ca         1 6EA      -0.135500
      4 C4           5.9950     0.9800     0.0580 cp         1 6EA      -0.114500
      5 C5           6.2240     2.2850     0.5750 ca         1 6EA      -0.135500
      6 C6           7.5200     2.8310     0.5850 ca         1 6EA       0.327900
      7 C11          4.6270     0.3450     0.0250 cp         1 6EA       0.424500
      8 C12          3.4320     1.0930     0.1580 ca         1 6EA      -0.153000
      9 C13          2.1890     0.4440     0.1200 ca         1 6EA      -0.041000
     10 C14          2.1650    -0.9520    -0.0560 ca         1 6EA      -0.087000
     11 C15          3.3920    -1.6480    -0.1900 ca         1 6EA       0.248000
     12 N16          4.5850    -0.9970    -0.1510 nb         1 6EA      -0.655000
     13 C19          0.9520    -1.6760    -0.1040 ca         1 6EA       0.126100
     14 C20          1.0100    -3.0830    -0.2850 ca         1 6EA       0.224900
     15 N21          2.1690    -3.7700    -0.4150 nb         1 6EA      -0.628000
     16 C22          3.3260    -3.0560    -0.3680 ca         1 6EA       0.341900
     17 O25         -0.2470    -0.9940     0.0250 os         1 6EA      -0.349100
     18 C26         -1.5200    -1.6750     0.0070 c3         1 6EA       0.115600
     19 C27         -2.6490    -0.6200     0.1810 c3         1 6EA       0.166500
     20 N30         -2.5500     0.4420    -0.8570 n8         1 6EA      -0.984200
     21 C31         -4.0530    -1.2860     0.2070 c3         1 6EA       0.008800
     22 C33         -5.1640    -0.3850     0.6960 cc         1 6EA      -0.127400
     23 C36         -5.5960    -0.2290     2.0110 cd         1 6EA      -0.161100
     24 N37         -6.6650     0.6980     2.0570 na         1 6EA      -0.223700
     25 C38         -6.8800     1.0940     0.7510 ca         1 6EA      -0.048200
     26 C39         -6.0050     0.4720    -0.0950 ca         1 6EA      -0.078800
     27 C43         -7.8430     1.9960     0.2760 ca         1 6EA      -0.130000
     28 C44         -7.8900     2.2510    -1.1110 ca         1 6EA      -0.091000
     29 C45         -6.9860     1.6040    -1.9860 ca         1 6EA      -0.144000
     30 C46         -6.0280     0.7000    -1.4790 ca         1 6EA      -0.050000
     31 H2           9.2980     0.4110    -0.7440 h4         1 6EA       0.021100
     32 H3           7.0840    -0.6950    -0.8360 ha         1 6EA       0.132500
     33 H5           5.4160     2.8810     0.9850 ha         1 6EA       0.132500
     34 H6           7.6960     3.8290     0.9840 h4         1 6EA       0.021100
     35 H12          3.4620     2.1700     0.2780 ha         1 6EA       0.130000
     36 H13          1.2710     1.0190     0.2220 ha         1 6EA       0.136000
     37 H20          0.1060    -3.6880    -0.3290 h4         1 6EA       0.025100
     38 H22          4.2430    -3.6340    -0.4750 h4         1 6EA       0.040100
     39 H261        -1.5760    -2.4040     0.8250 h1         1 6EA       0.043200
     40 H262        -1.6600    -2.2080    -0.9430 h1         1 6EA       0.043200
     41 H27         -2.4910    -0.1460     1.1620 h1         1 6EA       0.075700
     42 H301        -1.5650     0.7250    -0.9160 hn         1 6EA       0.399000
     43 H302        -2.7290     0.0260    -1.7760 hn         1 6EA       0.399000
     44 H311        -4.2940    -1.6710    -0.7910 hc         1 6EA       0.043200
     45 H312        -4.0100    -2.1650     0.8630 hc         1 6EA       0.043200
     46 H36         -5.2200    -0.7090     2.9120 h4         1 6EA       0.208000
     47 H37         -7.1750     1.0060     2.8810 hn         1 6EA       0.349000
     48 H43         -8.5350     2.4870     0.9560 ha         1 6EA       0.111000
     49 H44         -8.6260     2.9460    -1.5090 ha         1 6EA       0.109000
     50 H45         -7.0280     1.8040    -3.0540 ha         1 6EA       0.109000
     51 H46         -5.3300     0.1970    -2.1440 ha         1 6EA       0.109000
@<TRIPOS>BOND
     1     1     2 ar  
     2     1     6 ar  
     3     2     3 ar  
     4     2    31 1   
     5     3     4 ar  
     6     3    32 1   
     7     4     5 ar  
     8     4     7 1   
     9     5     6 ar  
    10     5    33 1   
    11     6    34 1   
    12     7     8 ar  
    13     7    12 ar  
    14     8     9 ar  
    15     8    35 1   
    16     9    10 ar  
    17     9    36 1   
    18    10    11 ar  
    19    10    13 ar  
    20    11    12 ar  
    21    11    16 ar  
    22    13    14 ar  
    23    13    17 1   
    24    14    15 ar  
    25    14    37 1   
    26    15    16 ar  
    27    16    38 1   
    28    17    18 1   
    29    18    19 1   
    30    18    39 1   
    31    18    40 1   
    32    19    20 1   
    33    19    21 1   
    34    19    41 1   
    35    20    42 1   
    36    20    43 1   
    37    21    22 1   
    38    21    44 1   
    39    21    45 1   
    40    22    23 2   
    41    22    26 1   
    42    23    24 1   
    43    23    46 1   
    44    24    25 1   
    45    24    47 1   
    46    25    26 ar  
    47    25    27 ar  
    48    26    30 ar  
    49    27    28 ar  
    50    27    48 1   
    51    28    29 ar  
    52    28    49 1   
    53    29    30 ar  
    54    29    50 1   
    55    30    51 1   
@<TRIPOS>SUBSTRUCTURE
     1 6EA         1 TEMP              0 ****  ****    0 ROOT
