@<TRIPOS>MOLECULE
6EA
   51    55     1     0     0
SMALL
bcc


@<TRIPOS>ATOM
      1 N1           8.4330     2.1110    -0.0760 nb         1 6EA      -0.655000
      2 C2           8.1640     0.9890    -0.7350 ca         1 6EA       0.393200
      3 C3           6.9270     0.3680    -0.7210 ca         1 6EA      -0.218800
      4 C4           5.8910     0.9430     0.0110 cp         1 6EA      -0.114500
      5 C5           6.1710     2.1170     0.7030 ca         1 6EA      -0.218800
      6 C6           7.4480     2.6520     0.6290 ca         1 6EA       0.393200
      7 C11          4.5530     0.3120     0.0410 cp         1 6EA       0.489800
      8 C12          3.3940     1.0760     0.3300 ca         1 6EA      -0.236300
      9 C13          2.1720     0.4690     0.3360 ca         1 6EA      -0.059000
     10 C14          2.0970    -0.9120     0.0550 ca         1 6EA      -0.152300
     11 C15          3.3020    -1.5850    -0.2230 ca         1 6EA       0.313300
     12 N16          4.4980    -0.9680    -0.2280 nb         1 6EA      -0.655000
     13 C19          0.8910    -1.6610     0.0250 ca         1 6EA       0.060800
     14 C20          0.9620    -3.0040    -0.2680 ca         1 6EA       0.290200
     15 N21          2.1250    -3.6370    -0.5310 nb         1 6EA      -0.628000
     16 C22          3.2440    -2.9720    -0.5120 ca         1 6EA       0.341900
     17 O25         -0.2270    -0.9810     0.2890 os         1 6EA      -0.325900
     18 C26         -1.4840    -1.6380     0.2010 c3         1 6EA       0.092400
     19 C27         -2.5750    -0.5860     0.3820 c3         1 6EA       0.166500
     20 N30         -2.5340     0.4860    -0.5920 n8         1 6EA      -0.873800
     21 C31         -3.9380    -1.2860     0.3500 c3         1 6EA       0.008800
     22 C33         -5.0860    -0.3990     0.7030 cc         1 6EA      -0.127400
     23 C36         -5.6200    -0.2240     1.9490 cd         1 6EA      -0.111100
     24 N37         -6.6600     0.6630     1.9000 na         1 6EA      -0.173400
     25 C38         -6.8380     1.0750     0.6120 ca         1 6EA      -0.048200
     26 C39         -5.8580     0.4290    -0.1750 ca         1 6EA      -0.078800
     27 C43         -7.7730     1.9540     0.0650 ca         1 6EA      -0.148000
     28 C44         -7.7160     2.1780    -1.2970 ca         1 6EA      -0.109000
     29 C45         -6.7510     1.5450    -2.1000 ca         1 6EA      -0.162000
     30 C46         -5.8250     0.6800    -1.5520 ca         1 6EA      -0.068000
     31 H2           8.9760     0.5580    -1.3110 h4         1 6EA       0.021100
     32 H3           6.7710    -0.5440    -1.2800 ha         1 6EA       0.150500
     33 H5           5.4290     2.6140     1.3130 ha         1 6EA       0.150500
     34 H6           7.6800     3.5630     1.1700 h4         1 6EA       0.021100
     35 H12          3.4700     2.1370     0.5220 ha         1 6EA       0.148000
     36 H13          1.2790     1.0420     0.5440 ha         1 6EA       0.154000
     37 H20          0.0740    -3.6230    -0.3020 h4         1 6EA       0.025100
     38 H22          4.1650    -3.5030    -0.7280 h4         1 6EA       0.040100
     39 H261        -1.5570    -2.4100     0.9750 h1         1 6EA       0.043200
     40 H262        -1.5890    -2.1230    -0.7780 h1         1 6EA       0.043200
     41 H27         -2.4500    -0.1410     1.3750 h1         1 6EA       0.075700
     42 H301        -1.6280     0.9370    -0.5830 hn         1 6EA       0.343800
     43 H302        -2.6540     0.1090    -1.5260 hn         1 6EA       0.343800
     44 H311        -4.0930    -1.7140    -0.6470 hc         1 6EA       0.043200
     45 H312        -3.9110    -2.1330     1.0410 hc         1 6EA       0.043200
     46 H36         -5.3330    -0.6780     2.8850 h4         1 6EA       0.158000
     47 H37         -7.2320     0.9240     2.6850 hn         1 6EA       0.298700
     48 H43         -8.5170     2.4400     0.6830 ha         1 6EA       0.129000
     49 H44         -8.4290     2.8520    -1.7550 ha         1 6EA       0.127000
     50 H45         -6.7360     1.7460    -3.1640 ha         1 6EA       0.127000
     51 H46         -5.0860     0.2010    -2.1820 ha         1 6EA       0.127000
@<TRIPOS>BOND
     1     1     2 ar  
     2     1     6 ar  
     3     2     3 ar  
     4     2    31 1   
     5     3     4 ar  
     6     3    32 1   
     7     4     5 ar  
     8     4     7 1   
     9     5     6 ar  
    10     5    33 1   
    11     6    34 1   
    12     7     8 ar  
    13     7    12 ar  
    14     8     9 ar  
    15     8    35 1   
    16     9    10 ar  
    17     9    36 1   
    18    10    11 ar  
    19    10    13 ar  
    20    11    12 ar  
    21    11    16 ar  
    22    13    14 ar  
    23    13    17 1   
    24    14    15 ar  
    25    14    37 1   
    26    15    16 ar  
    27    16    38 1   
    28    17    18 1   
    29    18    19 1   
    30    18    39 1   
    31    18    40 1   
    32    19    20 1   
    33    19    21 1   
    34    19    41 1   
    35    20    42 1   
    36    20    43 1   
    37    21    22 1   
    38    21    44 1   
    39    21    45 1   
    40    22    23 2   
    41    22    26 1   
    42    23    24 1   
    43    23    46 1   
    44    24    25 1   
    45    24    47 1   
    46    25    26 ar  
    47    25    27 ar  
    48    26    30 ar  
    49    27    28 ar  
    50    27    48 1   
    51    28    29 ar  
    52    28    49 1   
    53    29    30 ar  
    54    29    50 1   
    55    30    51 1   
@<TRIPOS>SUBSTRUCTURE
     1 6EA         1 TEMP              0 ****  ****    0 ROOT
