@<TRIPOS>MOLECULE
6EB
   39    41     1     0     0
SMALL
abcg2


@<TRIPOS>ATOM
      1 C10         -0.1840     0.8390     0.0250 ca         1 6EB       0.392300
      2 C13         -3.5950    -0.3960    -0.0430 c3         1 6EB      -0.083400
      3 C15         -6.0900    -0.8060    -0.0610 c3         1 6EB       0.302000
      4 C20          0.7220     2.9040     0.0870 ca         1 6EB       0.407300
      5 C22          2.0320     2.3290     0.0870 ca         1 6EB      -0.217000
      6 C24          4.4030     2.3560     0.0480 ca         1 6EB       0.328900
      7 N02          4.5060    -3.0990    -0.1420 na         1 6EB      -0.167500
      8 C03          3.2620    -3.2360     0.3710 cc         1 6EB       0.379400
      9 N04          2.6600    -2.0880     0.5160 nd         1 6EB      -0.611000
     10 C05          3.5560    -1.1510     0.0830 cd         1 6EB       0.165000
     11 C06          4.7140    -1.7720    -0.3250 cc         1 6EB      -0.172000
     12 C07          3.3540     0.2970     0.0800 ca         1 6EB       0.388000
     13 C08          2.0640     0.9210     0.0730 ca         1 6EB       0.057000
     14 N09          0.9400     0.1820     0.0300 nb         1 6EB      -0.166000
     15 O11         -1.2740     0.0850    -0.0190 os         1 6EB      -0.433300
     16 C12         -2.5580     0.7080    -0.0200 c3         1 6EB       0.180600
     17 C14         -4.9910     0.2180    -0.0370 c3         1 6EB      -0.151400
     18 F16         -6.0380    -1.5860    -1.1530 f          1 6EB      -0.117333
     19 F17         -6.0450    -1.6320     0.9970 f          1 6EB      -0.117333
     20 F18         -7.3050    -0.2380    -0.0530 f          1 6EB      -0.117333
     21 N19         -0.3500     2.1690     0.0590 nb         1 6EB      -0.291000
     22 O21          0.5110     4.2050     0.1110 oh         1 6EB      -0.626300
     23 C23          3.2310     3.0590     0.0780 ca         1 6EB      -0.137000
     24 N25          4.4550     1.0170     0.0580 nb         1 6EB      -0.676000
     25 H1          -3.4550    -1.0110    -0.9350 hc         1 6EB       0.073700
     26 H2           5.3550     2.8720     0.0250 h4         1 6EB       0.022100
     27 H3           6.2820    -4.1290     0.2770 h1         1 6EB       0.054367
     28 H4           4.9400    -5.1200    -0.3090 h1         1 6EB       0.054367
     29 H5           5.8230    -4.0820    -1.4340 h1         1 6EB       0.054367
     30 H6           2.8500    -4.2040     0.6190 h5         1 6EB       0.056100
     31 H7           5.6320    -1.3820    -0.7310 h4         1 6EB       0.168000
     32 H8          -2.6630     1.3560    -0.8930 h1         1 6EB       0.052200
     33 H9          -2.6770     1.3300     0.8700 h1         1 6EB       0.052200
     34 H10         -5.1280     0.8380     0.8530 hc         1 6EB       0.079700
     35 H12          3.2640     4.1410     0.0880 ha         1 6EB       0.114000
     36 H13         -3.4600    -1.0410     0.8270 hc         1 6EB       0.073700
     37 H14         -5.1230     0.8730    -0.9020 hc         1 6EB       0.079700
     38 H11          1.3270     4.7180     0.1410 ho         1 6EB       0.488000
     39 C01          5.4460    -4.1640    -0.4170 c3         1 6EB       0.057900
@<TRIPOS>BOND
     1     1    14 ar  
     2     1    15 1   
     3     1    21 ar  
     4     2    16 1   
     5     2    17 1   
     6     2    25 1   
     7     2    36 1   
     8     3    17 1   
     9     3    18 1   
    10     3    19 1   
    11     3    20 1   
    12     4     5 ar  
    13     4    21 ar  
    14     4    22 1   
    15     5    13 ar  
    16     5    23 ar  
    17     6    23 ar  
    18     6    24 ar  
    19     6    26 1   
    20     7     8 1   
    21     7    11 1   
    22     7    39 1   
    23     8     9 2   
    24     8    30 1   
    25     9    10 1   
    26    10    11 2   
    27    10    12 1   
    28    11    31 1   
    29    12    13 ar  
    30    12    24 ar  
    31    13    14 ar  
    32    15    16 1   
    33    16    32 1   
    34    16    33 1   
    35    17    34 1   
    36    17    37 1   
    37    22    38 1   
    38    23    35 1   
    39    27    39 1   
    40    28    39 1   
    41    29    39 1   
@<TRIPOS>SUBSTRUCTURE
     1 6EB         1 TEMP              0 ****  ****    0 ROOT
