@<TRIPOS>MOLECULE
6EB
   39    41     1     0     0
SMALL
No Charge or Current Charge


@<TRIPOS>ATOM
      1 C10         -0.2050     0.9560     0.0150 ca         1 6EB       0.392300
      2 C13         -3.6960    -0.3500    -0.0090 c3         1 6EB      -0.083400
      3 C15         -6.2280    -0.9600    -0.0150 c3         1 6EB       0.302000
      4 C20          0.8200     3.0040     0.0820 ca         1 6EB       0.407300
      5 C22          2.0850     2.3820     0.0520 ca         1 6EB      -0.217000
      6 C24          4.5130     2.3860     0.0370 ca         1 6EB       0.328900
      7 N02          4.5480    -3.1550    -0.1610 na         1 6EB      -0.167500
      8 C03          3.1780    -3.2990    -0.1600 cc         1 6EB       0.379400
      9 N04          2.5830    -2.1170    -0.1130 nd         1 6EB      -0.611000
     10 C05          3.5990    -1.1680    -0.0850 cd         1 6EB       0.165000
     11 C06          4.8210    -1.8060    -0.1160 cc         1 6EB      -0.172000
     12 C07          3.4110     0.3240    -0.0300 ca         1 6EB       0.388000
     13 C08          2.1270     0.9640     0.0010 ca         1 6EB       0.057000
     14 N09          0.9600     0.2790    -0.0160 nb         1 6EB      -0.166000
     15 O11         -1.3530     0.1910    -0.0050 os         1 6EB      -0.433300
     16 C12         -2.6610     0.7920     0.0250 c3         1 6EB       0.180600
     17 C14         -5.1620     0.1590     0.0180 c3         1 6EB      -0.151400
     18 F16         -6.1180    -1.7050    -1.1380 f          1 6EB      -0.117333
     19 F17         -6.1040    -1.7830     1.0500 f          1 6EB      -0.117333
     20 F18         -7.4710    -0.4300     0.0120 f          1 6EB      -0.117333
     21 N19         -0.3160     2.2990     0.0640 nb         1 6EB      -0.291000
     22 O21          0.6870     4.3570     0.1310 oh         1 6EB      -0.626300
     23 C23          3.3040     3.0950     0.0700 ca         1 6EB      -0.137000
     24 N25          4.5740     1.0400    -0.0120 nb         1 6EB      -0.676000
     25 H1          -3.5320    -0.9470    -0.9150 hc         1 6EB       0.073700
     26 H2           5.4660     2.9150     0.0500 h4         1 6EB       0.022100
     27 H3           6.4380    -3.9490     0.3390 h1         1 6EB       0.054367
     28 H4           5.1150    -5.1480     0.2470 h1         1 6EB       0.054367
     29 H5           5.7980    -4.4530    -1.2540 h1         1 6EB       0.054367
     30 H6           2.6920    -4.2670    -0.1930 h5         1 6EB       0.056100
     31 H7           5.8270    -1.4040    -0.1080 h4         1 6EB       0.168000
     32 H8          -2.8100     1.4480    -0.8430 h1         1 6EB       0.052200
     33 H9          -2.7980     1.3850     0.9390 h1         1 6EB       0.052200
     34 H10         -5.3170     0.7620     0.9210 hc         1 6EB       0.079700
     35 H12          3.3440     4.1800     0.1080 ha         1 6EB       0.114000
     36 H13         -3.5200    -1.0100     0.8490 hc         1 6EB       0.073700
     37 H14         -5.3290     0.8250    -0.8370 hc         1 6EB       0.079700
     38 H11          1.5890     4.7320     0.1390 ho         1 6EB       0.488000
     39 C01          5.5350    -4.2430    -0.2100 c3         1 6EB       0.057900
@<TRIPOS>BOND
     1     1    14 ar  
     2     1    15 1   
     3     1    21 ar  
     4     2    16 1   
     5     2    17 1   
     6     2    25 1   
     7     2    36 1   
     8     3    17 1   
     9     3    18 1   
    10     3    19 1   
    11     3    20 1   
    12     4     5 ar  
    13     4    21 ar  
    14     4    22 1   
    15     5    13 ar  
    16     5    23 ar  
    17     6    23 ar  
    18     6    24 ar  
    19     6    26 1   
    20     7     8 1   
    21     7    11 1   
    22     7    39 1   
    23     8     9 2   
    24     8    30 1   
    25     9    10 1   
    26    10    11 2   
    27    10    12 1   
    28    11    31 1   
    29    12    13 ar  
    30    12    24 ar  
    31    13    14 ar  
    32    15    16 1   
    33    16    32 1   
    34    16    33 1   
    35    17    34 1   
    36    17    37 1   
    37    22    38 1   
    38    23    35 1   
    39    27    39 1   
    40    28    39 1   
    41    29    39 1   
@<TRIPOS>SUBSTRUCTURE
     1 6EB         1 TEMP              0 ****  ****    0 ROOT
