@<TRIPOS>MOLECULE
6EC
   41    43     1     0     0
SMALL
abcg2


@<TRIPOS>ATOM
      1 OAX         -4.1200    -2.3130     1.4880 o          1 6EC      -0.694500
      2 CAW         -4.8960    -1.8020     0.6770 c          1 6EC       0.724600
      3 OAY         -6.0280    -2.2770     0.3470 o          1 6EC      -0.694500
      4 CAS         -4.5120    -0.5110    -0.0020 ca         1 6EC      -0.259600
      5 CAR         -3.3020     0.1070     0.2920 ca         1 6EC      -0.014000
      6 CAT         -5.3890     0.0860    -0.9280 ca         1 6EC       0.211100
      7 OAZ         -6.5610    -0.4740    -1.2220 oh         1 6EC      -0.628100
      8 CAU         -5.0180     1.2870    -1.5380 ca         1 6EC      -0.205000
      9 CAV         -3.7980     1.8690    -1.2500 ca         1 6EC      -0.102000
     10 CAQ         -2.9270     1.2890    -0.3290 ca         1 6EC      -0.146000
     11 NAO         -1.7140     1.9390    -0.0210 ns         1 6EC      -0.155000
     12 CAN         -0.4950     1.3300    -0.0870 c          1 6EC       0.656100
     13 OAP         -0.3550     0.1460    -0.3430 o          1 6EC      -0.599100
     14 NAM          0.5430     2.1850     0.1770 ns         1 6EC      -0.171000
     15 CAI          1.9060     1.9060     0.2490 ca         1 6EC       0.017000
     16 CAH          2.4740     0.6540     0.0070 ca         1 6EC      -0.129000
     17 CAJ          2.7460     2.9730     0.5850 ca         1 6EC      -0.185000
     18 CAK          4.1120     2.7850     0.6800 ca         1 6EC      -0.085000
     19 CAL          4.6750     1.5390     0.4460 ca         1 6EC      -0.145000
     20 CAG          3.8530     0.4660     0.1090 cp         1 6EC      -0.008000
     21 CAC          4.4270    -0.8750    -0.1340 cp         1 6EC      -0.032000
     22 CAB          3.7520    -2.0270     0.2730 ca         1 6EC      -0.096000
     23 CAA          4.2930    -3.2850     0.0500 ca         1 6EC      -0.115500
     24 CAF          5.5220    -3.4160    -0.5830 ca         1 6EC      -0.114000
     25 CAE          6.2040    -2.2770    -0.9920 ca         1 6EC      -0.115500
     26 CAD          5.6620    -1.0200    -0.7700 ca         1 6EC      -0.096000
     27 H2          -2.6550    -0.3510     1.0280 ha         1 6EC       0.139000
     28 H3          -6.5680    -1.3170    -0.6370 ho         1 6EC       0.549000
     29 H4          -5.6870     1.7540    -2.2500 ha         1 6EC       0.104000
     30 H5          -3.5190     2.7930    -1.7440 ha         1 6EC       0.081000
     31 H6          -1.7520     2.9430     0.0620 hn         1 6EC       0.130000
     32 H7           0.3040     3.1420     0.3920 hn         1 6EC       0.138000
     33 H8           1.8480    -0.1750    -0.2780 ha         1 6EC       0.161000
     34 H9           2.3230     3.9530     0.7770 ha         1 6EC       0.103000
     35 H10          4.7440     3.6210     0.9490 ha         1 6EC       0.103000
     36 H11          5.7440     1.4020     0.5490 ha         1 6EC       0.109000
     37 H12          2.8030    -1.9430     0.7880 ha         1 6EC       0.119500
     38 H13          3.7550    -4.1650     0.3780 ha         1 6EC       0.109000
     39 H14          5.9450    -4.3970    -0.7560 ha         1 6EC       0.106000
     40 H15          7.1590    -2.3680    -1.4940 ha         1 6EC       0.109000
     41 H16          6.1970    -0.1440    -1.1140 ha         1 6EC       0.119500
@<TRIPOS>BOND
     1     1     2 1   
     2     2     3 1   
     3     2     4 1   
     4     4     5 ar  
     5     4     6 ar  
     6     5    10 ar  
     7     5    27 1   
     8     6     7 1   
     9     6     8 ar  
    10     7    28 1   
    11     8     9 ar  
    12     8    29 1   
    13     9    10 ar  
    14     9    30 1   
    15    10    11 1   
    16    11    12 1   
    17    11    31 1   
    18    12    13 2   
    19    12    14 1   
    20    14    15 1   
    21    14    32 1   
    22    15    16 ar  
    23    15    17 ar  
    24    16    20 ar  
    25    16    33 1   
    26    17    18 ar  
    27    17    34 1   
    28    18    19 ar  
    29    18    35 1   
    30    19    20 ar  
    31    19    36 1   
    32    20    21 1   
    33    21    22 ar  
    34    21    26 ar  
    35    22    23 ar  
    36    22    37 1   
    37    23    24 ar  
    38    23    38 1   
    39    24    25 ar  
    40    24    39 1   
    41    25    26 ar  
    42    25    40 1   
    43    26    41 1   
@<TRIPOS>SUBSTRUCTURE
     1 6EC         1 TEMP              0 ****  ****    0 ROOT
