@<TRIPOS>MOLECULE
6EC
   41    43     1     0     0
SMALL
No Charge or Current Charge


@<TRIPOS>ATOM
      1 OAX         -4.2400    -2.8400    -0.2430 o          1 6EC      -0.694500
      2 CAW         -5.1430    -2.0240    -0.3370 c          1 6EC       0.724600
      3 OAY         -6.3250    -2.3360    -0.4070 o          1 6EC      -0.694500
      4 CAS         -4.7930    -0.5510    -0.3710 ca         1 6EC      -0.259600
      5 CAR         -3.4380    -0.1420    -0.2930 ca         1 6EC      -0.014000
      6 CAT         -5.7900     0.4430    -0.4800 ca         1 6EC       0.211100
      7 OAZ         -7.1010     0.1000    -0.5580 oh         1 6EC      -0.628100
      8 CAU         -5.4470     1.8000    -0.5110 ca         1 6EC      -0.205000
      9 CAV         -4.1040     2.1930    -0.4330 ca         1 6EC      -0.102000
     10 CAQ         -3.0880     1.2290    -0.3230 ca         1 6EC      -0.146000
     11 NAO         -1.7450     1.7040    -0.2480 ns         1 6EC      -0.155000
     12 CAN         -0.5200     1.0560    -0.1220 c          1 6EC       0.656100
     13 OAP         -0.3840    -0.1590    -0.0400 o          1 6EC      -0.599100
     14 NAM          0.5280     1.9640    -0.0930 ns         1 6EC      -0.171000
     15 CAI          1.9370     1.7980     0.0030 ca         1 6EC       0.017000
     16 CAH          2.5850     0.5440    -0.0460 ca         1 6EC      -0.129000
     17 CAJ          2.7160     2.9600     0.1400 ca         1 6EC      -0.185000
     18 CAK          4.1130     2.8780     0.2350 ca         1 6EC      -0.085000
     19 CAL          4.7460     1.6270     0.1900 ca         1 6EC      -0.145000
     20 CAG          3.9960     0.4340     0.0480 cp         1 6EC      -0.008000
     21 CAC          4.6730    -0.9020    -0.0030 cp         1 6EC      -0.032000
     22 CAB          4.0770    -2.0500     0.5790 ca         1 6EC      -0.096000
     23 CAA          4.7130    -3.3030     0.5310 ca         1 6EC      -0.115500
     24 CAF          5.9590    -3.4350    -0.1020 ca         1 6EC      -0.114000
     25 CAE          6.5690    -2.3140    -0.6850 ca         1 6EC      -0.115500
     26 CAD          5.9330    -1.0610    -0.6350 ca         1 6EC      -0.096000
     27 H2          -2.6680    -0.9010    -0.2100 ha         1 6EC       0.139000
     28 H3          -7.0910    -0.9000    -0.5170 ho         1 6EC       0.549000
     29 H4          -6.2260     2.5540    -0.5950 ha         1 6EC       0.104000
     30 H5          -3.8530     3.2520    -0.4580 ha         1 6EC       0.081000
     31 H6          -1.6720     2.7120    -0.2980 hn         1 6EC       0.130000
     32 H7           0.2390     2.9320    -0.1530 hn         1 6EC       0.138000
     33 H8           2.0090    -0.3650    -0.1810 ha         1 6EC       0.161000
     34 H9           2.2360     3.9360     0.1760 ha         1 6EC       0.103000
     35 H10          4.7060     3.7830     0.3460 ha         1 6EC       0.103000
     36 H11          5.8280     1.5820     0.2780 ha         1 6EC       0.109000
     37 H12          3.1180    -1.9680     1.0860 ha         1 6EC       0.119500
     38 H13          4.2400    -4.1700     0.9860 ha         1 6EC       0.109000
     39 H14          6.4510    -4.4050    -0.1390 ha         1 6EC       0.106000
     40 H15          7.5340    -2.4140    -1.1780 ha         1 6EC       0.109000
     41 H16          6.4170    -0.2070    -1.1040 ha         1 6EC       0.119500
@<TRIPOS>BOND
     1     1     2 1   
     2     2     3 1   
     3     2     4 1   
     4     4     5 ar  
     5     4     6 ar  
     6     5    10 ar  
     7     5    27 1   
     8     6     7 1   
     9     6     8 ar  
    10     7    28 1   
    11     8     9 ar  
    12     8    29 1   
    13     9    10 ar  
    14     9    30 1   
    15    10    11 1   
    16    11    12 1   
    17    11    31 1   
    18    12    13 2   
    19    12    14 1   
    20    14    15 1   
    21    14    32 1   
    22    15    16 ar  
    23    15    17 ar  
    24    16    20 ar  
    25    16    33 1   
    26    17    18 ar  
    27    17    34 1   
    28    18    19 ar  
    29    18    35 1   
    30    19    20 ar  
    31    19    36 1   
    32    20    21 1   
    33    21    22 ar  
    34    21    26 ar  
    35    22    23 ar  
    36    22    37 1   
    37    23    24 ar  
    38    23    38 1   
    39    24    25 ar  
    40    24    39 1   
    41    25    26 ar  
    42    25    40 1   
    43    26    41 1   
@<TRIPOS>SUBSTRUCTURE
     1 6EC         1 TEMP              0 ****  ****    0 ROOT
