@<TRIPOS>MOLECULE
6ED
   49    52     1     0     0
SMALL
bcc


@<TRIPOS>ATOM
      1 N12         -0.5810    -0.0420     0.6930 nc         1 6ED      -0.625100
      2 C15          2.4320     0.4720    -0.2790 c3         1 6ED       0.141800
      3 C17          4.6760     0.5560    -1.1630 c6         1 6ED       0.169300
      4 C22          5.5490    -1.2390     0.9200 c6         1 6ED      -0.126400
      5 C24         -0.3290     2.1620     0.4290 ca         1 6ED      -0.026200
      6 C26         -2.5680     2.8490    -0.2490 ca         1 6ED      -0.060000
      7 O01         -6.6960    -1.7620    -0.5600 o          1 6ED      -0.810800
      8 O03         -5.3700     0.0200    -0.5010 o          1 6ED      -0.810800
      9 C04         -4.4310    -2.1070     0.0090 ca         1 6ED      -0.179600
     10 C05         -4.6400    -3.4720     0.1320 ca         1 6ED      -0.187300
     11 C06         -3.5990    -4.3130     0.4880 ca         1 6ED       0.318200
     12 N07         -2.3740    -3.8620     0.7270 nb         1 6ED      -0.675000
     13 C08         -2.1420    -2.5630     0.6180 ca         1 6ED       0.315200
     14 C09         -3.1270    -1.6250     0.2600 ca         1 6ED       0.085300
     15 C11         -1.7440     0.4360     0.3230 cd         1 6ED       0.637800
     16 N13          0.2730     1.0030     0.7800 na         1 6ED       0.088900
     17 C25         -1.6640     1.8520     0.1320 ca         1 6ED      -0.236900
     18 C27         -2.0760     4.1250    -0.3220 ca         1 6ED       0.055900
     19 F28         -2.8990     5.1270    -0.6880 f          1 6ED      -0.157900
     20 C29         -0.7420     4.4520    -0.0350 ca         1 6ED      -0.126000
     21 C30          0.1500     3.4750     0.3450 ca         1 6ED      -0.156000
     22 C14          1.6730     0.7700     1.0130 c3         1 6ED       0.078300
     23 N16          3.8390     0.2440    -0.0180 n3         1 6ED      -0.735600
     24 C18          6.1500     0.4980    -0.7790 c6         1 6ED      -0.126400
     25 C19          6.4900    -0.8490    -0.1920 c6         1 6ED       0.421600
     26 F20          7.7870    -0.8610     0.2550 f          1 6ED      -0.249800
     27 F21          6.4480    -1.8030    -1.1820 f          1 6ED      -0.249800
     28 C23          4.1020    -1.1020     0.4630 c6         1 6ED       0.169300
     29 H1           1.9580    -0.3740    -0.8020 h1         1 6ED       0.050700
     30 H2           2.3370     1.3390    -0.9380 h1         1 6ED       0.050700
     31 H3           4.4820    -0.1190    -2.0120 h1         1 6ED       0.046450
     32 H4           4.4450     1.5660    -1.5060 h1         1 6ED       0.046450
     33 H5           5.7470    -2.2620     1.2480 hc         1 6ED       0.070450
     34 H6           5.7250    -0.5750     1.7690 hc         1 6ED       0.070450
     35 H7          -3.6050     2.6360    -0.4800 ha         1 6ED       0.180000
     36 H9          -5.6240    -3.8790    -0.0530 ha         1 6ED       0.152000
     37 H10         -3.7590    -5.3810     0.5840 h4         1 6ED      -0.005900
     38 H11         -1.1340    -2.2330     0.8210 h4         1 6ED       0.025100
     39 H12         -3.7520     0.2160    -0.1330 hn         1 6ED       0.522800
     40 H13         -0.4210     5.4820    -0.1150 ha         1 6ED       0.133000
     41 H14          1.1790     3.7250     0.5680 ha         1 6ED       0.130000
     42 H15          1.7540    -0.0490     1.7260 h1         1 6ED       0.062200
     43 H16          2.0980     1.6550     1.4900 h1         1 6ED       0.062200
     44 H18          6.7780     0.7080    -1.6470 hc         1 6ED       0.070450
     45 H19          6.3530     1.2610    -0.0240 hc         1 6ED       0.070450
     46 H20          3.8800    -1.8560    -0.3110 h1         1 6ED       0.046450
     47 H21          3.4520    -1.3270     1.3080 h1         1 6ED       0.046450
     48 N10         -2.8890    -0.2800     0.1410 nu         1 6ED      -0.708600
     49 C02         -5.6020    -1.2120    -0.3850 c          1 6ED       0.935200
@<TRIPOS>BOND
     1     1    15 2   
     2     1    16 1   
     3     2    22 1   
     4     2    23 1   
     5     2    29 1   
     6     2    30 1   
     7     3    23 1   
     8     3    24 1   
     9     3    31 1   
    10     3    32 1   
    11     4    25 1   
    12     4    28 1   
    13     4    33 1   
    14     4    34 1   
    15     5    16 1   
    16     5    17 ar  
    17     5    21 ar  
    18     6    17 ar  
    19     6    18 ar  
    20     6    35 1   
    21     7    49 1   
    22     8    49 1   
    23     9    10 ar  
    24     9    14 ar  
    25     9    49 1   
    26    10    11 ar  
    27    10    36 1   
    28    11    12 ar  
    29    11    37 1   
    30    12    13 ar  
    31    13    14 ar  
    32    13    38 1   
    33    14    48 1   
    34    15    17 1   
    35    15    48 1   
    36    16    22 1   
    37    18    19 1   
    38    18    20 ar  
    39    20    21 ar  
    40    20    40 1   
    41    21    41 1   
    42    22    42 1   
    43    22    43 1   
    44    23    28 1   
    45    24    25 1   
    46    24    44 1   
    47    24    45 1   
    48    25    26 1   
    49    25    27 1   
    50    28    46 1   
    51    28    47 1   
    52    39    48 1   
@<TRIPOS>SUBSTRUCTURE
     1 6ED         1 TEMP              0 ****  ****    0 ROOT
