@<TRIPOS>MOLECULE
6ED
   49    52     1     0     0
SMALL
No Charge or Current Charge


@<TRIPOS>ATOM
      1 N12         -0.7360    -0.3130     0.5380 nc         1 6ED      -0.625100
      2 C15          2.5610     0.4510    -0.2760 c3         1 6ED       0.141800
      3 C17          4.8450     0.5730    -1.1950 c6         1 6ED       0.169300
      4 C22          5.8990    -0.8360     1.1670 c6         1 6ED      -0.126400
      5 C24         -0.3430     1.9370     0.2680 ca         1 6ED      -0.026200
      6 C26         -2.5240     2.7640    -0.3770 ca         1 6ED      -0.042000
      7 O01         -6.9710    -1.3360     0.7620 o          1 6ED      -0.705500
      8 O03         -5.6340     0.1650     0.0070 o          1 6ED      -0.705500
      9 C04         -4.7900    -2.0400     0.2250 ca         1 6ED      -0.179600
     10 C05         -5.1410    -3.4140     0.2550 ca         1 6ED      -0.104000
     11 C06         -4.1510    -4.4040     0.1470 ca         1 6ED       0.252900
     12 N07         -2.8400    -4.1200     0.0080 nb         1 6ED      -0.675000
     13 C08         -2.4880    -2.8070    -0.0160 ca         1 6ED       0.249900
     14 C09         -3.4110    -1.7220     0.0960 ca         1 6ED       0.289000
     15 C11         -1.8530     0.3070     0.1640 cd         1 6ED       0.637800
     16 N13          0.2160     0.7120     0.5920 na         1 6ED       0.059600
     17 C25         -1.6560     1.7230    -0.0080 ca         1 6ED      -0.236900
     18 C27         -1.9780     4.0630    -0.4520 ca         1 6ED       0.091000
     19 F28         -2.7690     5.1010    -0.8030 f          1 6ED      -0.193000
     20 C29         -0.6110     4.2920    -0.1660 ca         1 6ED      -0.108000
     21 C30          0.2300     3.2170     0.2010 ca         1 6ED      -0.138000
     22 C14          1.6280     0.5040     0.9570 c3         1 6ED       0.107600
     23 N16          4.0170     0.3780     0.0300 n3         1 6ED      -0.735600
     24 C18          6.3490     0.6600    -0.8560 c6         1 6ED      -0.126400
     25 C19          6.8000    -0.5780    -0.0570 c6         1 6ED       0.179000
     26 F20          8.1280    -0.4030     0.3680 f          1 6ED      -0.128500
     27 F21          6.7960    -1.7100    -0.8940 f          1 6ED      -0.128500
     28 C23          4.4090    -0.8660     0.7580 c6         1 6ED       0.169300
     29 H1           2.2640    -0.4050    -0.8970 h1         1 6ED       0.050700
     30 H2           2.3640     1.3540    -0.8690 h1         1 6ED       0.050700
     31 H3           4.6800    -0.2550    -1.9030 h1         1 6ED       0.046450
     32 H4           4.5510     1.4990    -1.7120 h1         1 6ED       0.046450
     33 H5           6.1760    -1.7810     1.6510 hc         1 6ED       0.070450
     34 H6           6.0530    -0.0430     1.9110 hc         1 6ED       0.070450
     35 H7          -3.5740     2.5880    -0.5990 ha         1 6ED       0.162000
     36 H9          -6.1780    -3.7240     0.3550 ha         1 6ED       0.134000
     37 H10         -4.4170    -5.4600     0.1670 h4         1 6ED      -0.005900
     38 H11         -1.4240    -2.6300    -0.1520 h4         1 6ED       0.025100
     39 H12         -3.8260     0.2560    -0.0120 hn         1 6ED       0.578000
     40 H13         -0.2070     5.2990    -0.2290 ha         1 6ED       0.115000
     41 H14          1.2810     3.3810     0.4230 ha         1 6ED       0.112000
     42 H15          1.7030    -0.4330     1.5200 h1         1 6ED       0.062200
     43 H16          1.9440     1.3200     1.6160 h1         1 6ED       0.062200
     44 H18          6.9380     0.7540    -1.7780 hc         1 6ED       0.070450
     45 H19          6.5350     1.5670    -0.2670 hc         1 6ED       0.070450
     46 H20          4.2240    -1.7510     0.1290 h1         1 6ED       0.046450
     47 H21          3.8120    -0.9920     1.6720 h1         1 6ED       0.046450
     48 N10         -3.0180    -0.3730     0.0580 nu         1 6ED      -0.902200
     49 C02         -5.8770    -0.9870     0.3430 c          1 6ED       0.724600
@<TRIPOS>BOND
     1     1    15 2   
     2     1    16 1   
     3     2    22 1   
     4     2    23 1   
     5     2    29 1   
     6     2    30 1   
     7     3    23 1   
     8     3    24 1   
     9     3    31 1   
    10     3    32 1   
    11     4    25 1   
    12     4    28 1   
    13     4    33 1   
    14     4    34 1   
    15     5    16 1   
    16     5    17 ar  
    17     5    21 ar  
    18     6    17 ar  
    19     6    18 ar  
    20     6    35 1   
    21     7    49 1   
    22     8    49 1   
    23     9    10 ar  
    24     9    14 ar  
    25     9    49 1   
    26    10    11 ar  
    27    10    36 1   
    28    11    12 ar  
    29    11    37 1   
    30    12    13 ar  
    31    13    14 ar  
    32    13    38 1   
    33    14    48 1   
    34    15    17 1   
    35    15    48 1   
    36    16    22 1   
    37    18    19 1   
    38    18    20 ar  
    39    20    21 ar  
    40    20    40 1   
    41    21    41 1   
    42    22    42 1   
    43    22    43 1   
    44    23    28 1   
    45    24    25 1   
    46    24    44 1   
    47    24    45 1   
    48    25    26 1   
    49    25    27 1   
    50    28    46 1   
    51    28    47 1   
    52    39    48 1   
@<TRIPOS>SUBSTRUCTURE
     1 6ED         1 TEMP              0 ****  ****    0 ROOT
