@<TRIPOS>MOLECULE
6EE
   76    79     1     0     0
SMALL
bcc


@<TRIPOS>ATOM
      1 C2           1.6270    -0.1110     0.2620 c6         1 6EE       0.125800
      2 C3           0.7910     0.9940    -0.3640 c6         1 6EE       0.137100
      3 O8           6.5470    -0.1540    -1.1770 o          1 6EE      -0.567000
      4 C9           7.8350    -2.4440    -0.1340 c3         1 6EE       0.054000
      5 C10          8.6640    -3.0160    -1.2640 c3         1 6EE       0.637900
      6 C13          0.5260     2.1380     0.5940 c3         1 6EE      -0.065400
      7 C15         -0.9440     4.1060     1.0960 ca         1 6EE      -0.066300
      8 C20         -1.8560     3.7310     2.0850 ca         1 6EE      -0.054700
      9 C30         -3.4220    -2.4370     1.7230 ca         1 6EE      -0.113500
     10 C34         -1.4440    -2.2840     0.3870 ca         1 6EE      -0.113500
     11 C31         -3.0800    -3.7330     2.0870 ca         1 6EE      -0.123000
     12 C33         -1.0860    -3.5740     0.7420 ca         1 6EE      -0.123000
     13 C35         -4.6520    -1.1370    -1.2100 ca         1 6EE      -0.171500
     14 C39         -3.1280     0.5780    -1.9220 ca         1 6EE      -0.171500
     15 C37         -4.7890    -0.2660    -3.4720 ca         1 6EE      -0.212000
     16 C19         -2.2250     4.6400     3.0660 ca         1 6EE       0.385200
     17 C17         -0.8840     6.2580     2.2020 ca         1 6EE       0.373200
     18 C28         -2.6090    -1.6950     0.8730 ca         1 6EE      -0.088300
     19 C29         -3.5910    -0.2790    -0.9300 ca         1 6EE      -0.028300
     20 C36         -5.2230    -1.1070    -2.4650 ca         1 6EE       0.161900
     21 C38         -3.7330     0.5660    -3.1640 ca         1 6EE       0.161900
     22 C16         -0.4740     5.4050     1.1950 ca         1 6EE       0.025600
     23 C32         -1.9130    -4.2910     1.5930 ca         1 6EE       0.030400
     24 C23         -3.3960     1.9980     1.3310 c          1 6EE       0.623100
     25 C6           5.9330    -1.1830    -0.9980 c          1 6EE       0.763100
     26 C            1.6220     0.4840    -2.4870 c6         1 6EE       0.135400
     27 C1           2.4690    -0.6590    -1.9410 c6         1 6EE       0.134500
     28 C14         -0.4750     3.1540     0.0380 c3         1 6EE      -0.028100
     29 C4           3.9200    -0.2180    -1.7730 c3         1 6EE       0.127400
     30 C27         -2.9390    -0.2830     0.4370 c3         1 6EE       0.043900
     31 C24         -3.7510     0.5200     1.4940 c3         1 6EE       0.103500
     32 N18         -1.7500     5.8750     3.1280 nb         1 6EE      -0.635000
     33 N22         -2.3770     2.4180     2.1200 ns         1 6EE      -0.501100
     34 N7           6.4550    -2.3230    -0.4930 ns         1 6EE      -0.572900
     35 N            1.8330    -1.1500    -0.7290 n7         1 6EE      -0.818200
     36 N26         -5.1640     0.2530     1.4180 n8         1 6EE      -0.883800
     37 O25         -3.9490     2.7180     0.5220 o          1 6EE      -0.567100
     38 O            1.4250     1.4960    -1.5230 os         1 6EE      -0.402600
     39 O5           4.6380    -1.3440    -1.2650 os         1 6EE      -0.448900
     40 F41         -6.2450    -1.9320    -2.7270 f          1 6EE      -0.136400
     41 F40         -3.2740     1.3950    -4.1100 f          1 6EE      -0.136400
     42 F21          0.4150     5.8560     0.2990 f          1 6EE      -0.128900
     43 F            8.2540    -4.2430    -1.6140 f          1 6EE      -0.233633
     44 F11          8.6060    -2.2630    -2.3690 f          1 6EE      -0.233633
     45 F12          9.9530    -3.1120    -0.9130 f          1 6EE      -0.233633
     46 CL          -1.4780    -5.9070     2.0490 cl         1 6EE      -0.111400
     47 H1           2.5560     0.3220     0.6640 h1         1 6EE       0.043700
     48 H2           1.0840    -0.5340     1.1100 h1         1 6EE       0.043700
     49 H3          -0.1730     0.5410    -0.6630 h1         1 6EE       0.038700
     50 H4           7.9280    -3.1030     0.7300 h1         1 6EE       0.093200
     51 H5           8.2450    -1.4740     0.1490 h1         1 6EE       0.093200
     52 H6           0.1390     1.7060     1.5210 hc         1 6EE       0.052200
     53 H7           1.4650     2.6350     0.8520 hc         1 6EE       0.052200
     54 H9          -0.7850    -1.7340    -0.2780 ha         1 6EE       0.153000
     55 H10         -3.7220    -4.2970     2.7500 ha         1 6EE       0.149000
     56 H11         -0.1720    -4.0100     0.3610 ha         1 6EE       0.149000
     57 H12         -5.0280    -1.8240    -0.4640 ha         1 6EE       0.159500
     58 H13         -2.3000     1.2510    -1.7450 ha         1 6EE       0.159500
     59 H14         -5.2480    -0.2660    -4.4520 ha         1 6EE       0.169000
     60 H15         -2.9330     4.3420     3.8330 h4         1 6EE       0.027100
     61 H16         -0.4990     7.2700     2.2530 h4         1 6EE       0.042100
     62 H17          2.1000     0.9480    -3.3510 h1         1 6EE       0.060700
     63 H18          0.6560     0.0760    -2.8150 h1         1 6EE       0.060700
     64 H19          2.4430    -1.4620    -2.6850 h1         1 6EE       0.078700
     65 H20         -0.0350     3.6980    -0.7960 hc         1 6EE       0.070700
     66 H21         -1.3450     2.6330    -0.3650 hc         1 6EE       0.070700
     67 H22          4.3320     0.0860    -2.7390 h1         1 6EE       0.064700
     68 H23          4.0090     0.6250    -1.0850 h1         1 6EE       0.064700
     69 H24         -1.9760     0.2290     0.3340 hc         1 6EE       0.060700
     70 H25         -3.4010     0.1880     2.4750 h1         1 6EE       0.066700
     71 H26         -2.0510     1.8080     2.8550 hn         1 6EE       0.326500
     72 H27          5.8500    -3.1160    -0.3490 hn         1 6EE       0.339500
     73 H28          2.3520    -1.9240    -0.3370 hn         1 6EE       0.377800
     74 H30         -5.6310     0.6350     2.2300 hn         1 6EE       0.363800
     75 H31         -5.5680     0.7070     0.6080 hn         1 6EE       0.363800
     76 H8          -4.3410    -2.0110     2.1040 ha         1 6EE       0.153000
@<TRIPOS>BOND
     1     1     2 1   
     2     1    35 1   
     3     1    47 1   
     4     1    48 1   
     5     2     6 1   
     6     2    38 1   
     7     2    49 1   
     8     3    25 2   
     9     4     5 1   
    10     4    34 1   
    11     4    50 1   
    12     4    51 1   
    13     5    43 1   
    14     5    44 1   
    15     5    45 1   
    16     6    28 1   
    17     6    52 1   
    18     6    53 1   
    19     7     8 ar  
    20     7    22 ar  
    21     7    28 1   
    22     8    16 ar  
    23     8    33 1   
    24     9    11 ar  
    25     9    18 ar  
    26     9    76 1   
    27    10    12 ar  
    28    10    18 ar  
    29    10    54 1   
    30    11    23 ar  
    31    11    55 1   
    32    12    23 ar  
    33    12    56 1   
    34    13    19 ar  
    35    13    20 ar  
    36    13    57 1   
    37    14    19 ar  
    38    14    21 ar  
    39    14    58 1   
    40    15    20 ar  
    41    15    21 ar  
    42    15    59 1   
    43    16    32 ar  
    44    16    60 1   
    45    17    22 ar  
    46    17    32 ar  
    47    17    61 1   
    48    18    30 1   
    49    19    30 1   
    50    20    40 1   
    51    21    41 1   
    52    22    42 1   
    53    23    46 1   
    54    24    31 1   
    55    24    33 1   
    56    24    37 2   
    57    25    34 1   
    58    25    39 1   
    59    26    27 1   
    60    26    38 1   
    61    26    62 1   
    62    26    63 1   
    63    27    29 1   
    64    27    35 1   
    65    27    64 1   
    66    28    65 1   
    67    28    66 1   
    68    29    39 1   
    69    29    67 1   
    70    29    68 1   
    71    30    31 1   
    72    30    69 1   
    73    31    36 1   
    74    31    70 1   
    75    33    71 1   
    76    34    72 1   
    77    35    73 1   
    78    36    74 1   
    79    36    75 1   
@<TRIPOS>SUBSTRUCTURE
     1 6EE         1 TEMP              0 ****  ****    0 ROOT
