@<TRIPOS>MOLECULE
6EE
   76    79     1     0     0
SMALL
No Charge or Current Charge


@<TRIPOS>ATOM
      1 C2           1.5440    -0.2610     0.0780 c6         1 6EE       0.125800
      2 C3           0.7290     0.9450    -0.4920 c6         1 6EE       0.160300
      3 O8           6.7050    -0.0500    -1.0570 o          1 6EE      -0.518000
      4 C9           7.9910    -2.5150    -0.1540 c3         1 6EE       0.054000
      5 C10          8.9610    -2.8280    -1.3200 c3         1 6EE       0.274000
      6 C13          0.4320     2.0210     0.5880 c3         1 6EE      -0.065400
      7 C15         -0.8490     4.1490     1.2320 ca         1 6EE      -0.066300
      8 C20         -1.8390     3.8070     2.1910 ca         1 6EE      -0.082000
      9 C30         -3.6070    -2.3580     1.9740 ca         1 6EE      -0.095500
     10 C34         -1.6900    -2.4160     0.4790 ca         1 6EE      -0.095500
     11 C31         -3.2850    -3.6480     2.4320 ca         1 6EE      -0.105000
     12 C33         -1.3690    -3.7050     0.9390 ca         1 6EE      -0.105000
     13 C35         -4.7550    -1.3150    -1.2450 ca         1 6EE      -0.153500
     14 C39         -3.2390     0.4280    -1.9900 ca         1 6EE      -0.153500
     15 C37         -4.8100    -0.5680    -3.5610 ca         1 6EE      -0.194000
     16 C19         -2.1170     4.7070     3.2440 ca         1 6EE       0.319900
     17 C17         -0.5660     6.2360     2.4640 ca         1 6EE       0.307900
     18 C28         -2.8070    -1.7240     0.9950 ca         1 6EE      -0.088300
     19 C29         -3.7220    -0.3990    -0.9530 ca         1 6EE      -0.028300
     20 C36         -5.2930    -1.3950    -2.5390 ca         1 6EE       0.197000
     21 C38         -3.7820     0.3420    -3.2810 ca         1 6EE       0.197000
     22 C16         -0.2080     5.3990     1.3880 ca         1 6EE       0.126000
     23 C32         -2.1660    -4.3190     1.9160 ca         1 6EE       0.122000
     24 C23         -3.4440     2.1060     1.2130 c          1 6EE       0.556100
     25 C6           6.0860    -1.1000    -1.0030 c          1 6EE       0.647100
     26 C            1.7450     0.6750    -2.6610 c6         1 6EE       0.158600
     27 C1           2.5880    -0.5460    -2.1700 c6         1 6EE       0.134500
     28 C14         -0.4460     3.1980     0.0970 c3         1 6EE      -0.028100
     29 C4           4.0560    -0.1280    -1.8360 c3         1 6EE       0.150600
     30 C27         -3.1100    -0.3170     0.4530 c3         1 6EE       0.043900
     31 C24         -3.9060     0.6220     1.4260 c3         1 6EE       0.103500
     32 N18         -1.5030     5.9040     3.3860 nb         1 6EE      -0.635000
     33 N22         -2.5360     2.5710     2.1510 ns         1 6EE      -0.175000
     34 N7           6.5930    -2.2940    -0.5740 ns         1 6EE      -0.505900
     35 N            1.9430    -1.2210    -0.9930 n7         1 6EE      -0.873400
     36 N26         -5.4000     0.4100     1.3610 n8         1 6EE      -0.994200
     37 O25         -3.8810     2.8150     0.3110 o          1 6EE      -0.567100
     38 O            1.4650     1.5790    -1.5640 os         1 6EE      -0.449000
     39 O5           4.7830    -1.2790    -1.3510 os         1 6EE      -0.472100
     40 F41         -6.2820    -2.2750    -2.8020 f          1 6EE      -0.171500
     41 F40         -3.3090     1.1400    -4.2620 f          1 6EE      -0.171500
     42 F21          0.7580     5.7980     0.5260 f          1 6EE      -0.164000
     43 F            8.5580    -3.9220    -2.0060 f          1 6EE      -0.112333
     44 F11          9.0400    -1.7950    -2.1900 f          1 6EE      -0.112333
     45 F12         10.2060    -3.0690    -0.8500 f          1 6EE      -0.112333
     46 Cl          -1.7660    -5.9330     2.4910 cl         1 6EE      -0.203000
     47 H1           2.4450     0.1220     0.5800 h1         1 6EE       0.043700
     48 H2           0.9460    -0.7860     0.8380 h1         1 6EE       0.043700
     49 H3          -0.2240     0.5740    -0.8940 h1         1 6EE       0.038700
     50 H4           8.0150    -3.3510     0.5570 h1         1 6EE       0.093200
     51 H5           8.3520    -1.6240     0.3770 h1         1 6EE       0.093200
     52 H6          -0.0660     1.5380     1.4360 hc         1 6EE       0.052200
     53 H7           1.3730     2.4240     0.9800 hc         1 6EE       0.052200
     54 H9          -1.0670    -1.9560    -0.2850 ha         1 6EE       0.135000
     55 H10         -3.9040    -4.1290     3.1850 ha         1 6EE       0.131000
     56 H11         -0.5050    -4.2270     0.5360 ha         1 6EE       0.131000
     57 H12         -5.1470    -1.9670    -0.4690 ha         1 6EE       0.141500
     58 H13         -2.4420     1.1420    -1.8020 ha         1 6EE       0.141500
     59 H14         -5.2270    -0.6320    -4.5610 ha         1 6EE       0.151000
     60 H15         -2.8630     4.4610     3.9980 h4         1 6EE       0.027100
     61 H16         -0.0780     7.2010     2.5960 h4         1 6EE       0.042100
     62 H17          2.2850     1.2180    -3.4500 h1         1 6EE       0.060700
     63 H18          0.7940     0.3220    -3.0860 h1         1 6EE       0.060700
     64 H19          2.6490    -1.2680    -2.9980 h1         1 6EE       0.078700
     65 H20          0.0970     3.7360    -0.6890 hc         1 6EE       0.070700
     66 H21         -1.3350     2.8020    -0.4030 hc         1 6EE       0.070700
     67 H22          4.5250     0.2730    -2.7450 h1         1 6EE       0.064700
     68 H23          4.0430     0.6690    -1.0810 h1         1 6EE       0.064700
     69 H24         -2.1260     0.1550     0.3490 hc         1 6EE       0.060700
     70 H25         -3.5930     0.3670     2.4480 h1         1 6EE       0.066700
     71 H26         -2.3050     1.9240     2.8960 hn         1 6EE       0.160000
     72 H27          5.9490    -3.0750    -0.5930 hn         1 6EE       0.339500
     73 H28          2.6180    -1.8960    -0.6100 hn         1 6EE       0.433000
     74 H30         -5.8740     1.0650     1.9960 hn         1 6EE       0.419000
     75 H31         -5.7330     0.7030     0.4330 hn         1 6EE       0.419000
     76 H8          -4.4860    -1.8660     2.3830 ha         1 6EE       0.135000
@<TRIPOS>BOND
     1     1     2 1   
     2     1    35 1   
     3     1    47 1   
     4     1    48 1   
     5     2     6 1   
     6     2    38 1   
     7     2    49 1   
     8     3    25 2   
     9     4     5 1   
    10     4    34 1   
    11     4    50 1   
    12     4    51 1   
    13     5    43 1   
    14     5    44 1   
    15     5    45 1   
    16     6    28 1   
    17     6    52 1   
    18     6    53 1   
    19     7     8 ar  
    20     7    22 ar  
    21     7    28 1   
    22     8    16 ar  
    23     8    33 1   
    24     9    11 ar  
    25     9    18 ar  
    26     9    76 1   
    27    10    12 ar  
    28    10    18 ar  
    29    10    54 1   
    30    11    23 ar  
    31    11    55 1   
    32    12    23 ar  
    33    12    56 1   
    34    13    19 ar  
    35    13    20 ar  
    36    13    57 1   
    37    14    19 ar  
    38    14    21 ar  
    39    14    58 1   
    40    15    20 ar  
    41    15    21 ar  
    42    15    59 1   
    43    16    32 ar  
    44    16    60 1   
    45    17    22 ar  
    46    17    32 ar  
    47    17    61 1   
    48    18    30 1   
    49    19    30 1   
    50    20    40 1   
    51    21    41 1   
    52    22    42 1   
    53    23    46 1   
    54    24    31 1   
    55    24    33 1   
    56    24    37 2   
    57    25    34 1   
    58    25    39 1   
    59    26    27 1   
    60    26    38 1   
    61    26    62 1   
    62    26    63 1   
    63    27    29 1   
    64    27    35 1   
    65    27    64 1   
    66    28    65 1   
    67    28    66 1   
    68    29    39 1   
    69    29    67 1   
    70    29    68 1   
    71    30    31 1   
    72    30    69 1   
    73    31    36 1   
    74    31    70 1   
    75    33    71 1   
    76    34    72 1   
    77    35    73 1   
    78    36    74 1   
    79    36    75 1   
@<TRIPOS>SUBSTRUCTURE
     1 6EE         1 TEMP              0 ****  ****    0 ROOT
