@<TRIPOS>MOLECULE
6EF
   90    94     1     0     0
SMALL
abcg2


@<TRIPOS>ATOM
      1 C2         -23.9430    14.4910    -4.7800 c          1 6EF       0.641100
      2 C5         -25.3640    12.6990    -5.3820 c3         1 6EF       0.170900
      3 C7         -23.4600    16.3890    -1.7080 ca         1 6EF      -0.079800
      4 C9         -20.6170    18.3200    -1.5330 ca         1 6EF      -0.100750
      5 C10        -20.1870    19.6290    -1.3380 ca         1 6EF      -0.109750
      6 C11        -20.8250    20.6760    -1.9920 ca         1 6EF      -0.106500
      7 C12        -21.8870    20.4030    -2.8490 ca         1 6EF      -0.109750
      8 C13        -22.3140    19.0950    -3.0400 ca         1 6EF      -0.100750
      9 C15        -25.8520    16.6120    -1.4050 ca         1 6EF      -0.109750
     10 C18        -23.3850    15.7770    -0.4570 ca         1 6EF      -0.100750
     11 C20        -19.1920    18.1540    -7.0450 ca         1 6EF      -0.090300
     12 C21        -18.1400    18.1240    -7.9620 ca         1 6EF      -0.097000
     13 C22        -17.6680    16.9300    -8.4920 ca         1 6EF      -0.117000
     14 C          -20.9560    16.1780    -4.6690 c          1 6EF       0.586100
     15 N          -22.8460    14.8140    -4.0610 ns         1 6EF      -0.494900
     16 O          -20.0200    15.5220    -4.2230 o          1 6EF      -0.593100
     17 C1         -22.3240    16.1620    -3.9710 c3         1 6EF       0.063700
     18 O3         -24.2100    13.1720    -4.6660 os         1 6EF      -0.458100
     19 O4         -24.6130    15.2660    -5.4420 o          1 6EF      -0.550000
     20 C6         -22.1840    16.6050    -2.5030 c3         1 6EF       0.022900
     21 C8         -21.6910    18.0370    -2.3770 ca         1 6EF      -0.079800
     22 C14        -24.7100    16.8030    -2.1730 ca         1 6EF      -0.100750
     23 C16        -25.7650    16.0050    -0.1550 ca         1 6EF      -0.106500
     24 C17        -24.5260    15.5880     0.3170 ca         1 6EF      -0.109750
     25 C19        -19.7810    16.9350    -6.6890 ca         1 6EF      -0.042000
     26 C23        -18.2540    15.7260    -8.1120 ca         1 6EF      -0.102000
     27 C24        -19.3160    15.7330    -7.2180 ca         1 6EF      -0.102000
     28 C25        -15.5400    20.3410    -5.6090 c6         1 6EF       0.125600
     29 C26        -14.9980    20.5090    -4.1880 c6         1 6EF       0.125500
     30 N27        -15.6730    19.6110    -3.2390 n7         1 6EF      -0.847400
     31 C28        -17.1360    19.6250    -3.3810 c6         1 6EF       0.117800
     32 C29        -17.5980    19.4750    -4.8270 c6         1 6EF       0.128300
     33 O30        -16.9590    20.4710    -5.6390 os         1 6EF      -0.459000
     34 C31        -19.0980    19.6210    -4.9770 c3         1 6EF      -0.062400
     35 C36        -14.3450    24.0760    -4.4180 c          1 6EF       0.641100
     36 N37        -13.4200    24.7030    -5.1770 ns         1 6EF      -0.501900
     37 O38        -15.1970    24.6480    -3.7520 o          1 6EF      -0.544000
     38 C39        -12.3080    24.0460    -5.8480 c3         1 6EF       0.168300
     39 C40        -11.2590    23.4760    -4.9150 ca         1 6EF      -0.110300
     40 C41        -10.8840    24.1510    -3.7530 ca         1 6EF      -0.098500
     41 C42         -9.9010    23.6300    -2.9190 ca         1 6EF      -0.108500
     42 C43         -9.2780    22.4260    -3.2360 ca         1 6EF      -0.106000
     43 C44         -9.6480    21.7470    -4.3930 ca         1 6EF      -0.108500
     44 C45        -10.6340    22.2690    -5.2240 ca         1 6EF      -0.098500
     45 H1         -25.4100    11.6330    -5.1810 h1         1 6EF       0.050700
     46 H2         -26.2660    13.1920    -5.0190 h1         1 6EF       0.050700
     47 H3         -25.2510    12.8780    -6.4500 h1         1 6EF       0.050700
     48 H4         -20.1170    17.5070    -1.0210 ha         1 6EF       0.113250
     49 H5         -19.3490    19.8270    -0.6820 ha         1 6EF       0.115500
     50 H6         -20.4880    21.6950    -1.8480 ha         1 6EF       0.116000
     51 H7         -22.3800    21.2110    -3.3750 ha         1 6EF       0.115500
     52 H8         -23.1440    18.9090    -3.7090 ha         1 6EF       0.113250
     53 H9         -26.8130    16.9350    -1.7850 ha         1 6EF       0.115500
     54 H10        -22.4220    15.4460    -0.0870 ha         1 6EF       0.113250
     55 H11        -17.6740    19.0590    -8.2460 ha         1 6EF       0.121000
     56 H12        -16.8460    16.9380    -9.1960 ha         1 6EF       0.114000
     57 H13        -22.3670    14.0780    -3.5660 hn         1 6EF       0.342500
     58 H14        -23.0220    16.8020    -4.5040 h1         1 6EF       0.086700
     59 H15        -21.4190    15.9630    -2.0620 hc         1 6EF       0.076700
     60 H16        -24.8050    17.2710    -3.1440 ha         1 6EF       0.113250
     61 H17        -26.6560    15.8550     0.4420 ha         1 6EF       0.116000
     62 H18        -24.4450    15.1100     1.2860 ha         1 6EF       0.115500
     63 H19        -17.8980    14.7880    -8.5180 ha         1 6EF       0.117000
     64 H20        -19.7980    14.8090    -6.9300 ha         1 6EF       0.127000
     65 H21        -15.2530    19.3530    -5.9900 h1         1 6EF       0.053700
     66 H22        -15.1410    21.1040    -6.2780 h1         1 6EF       0.053700
     67 H23        -13.9380    20.2460    -4.1910 h1         1 6EF       0.073700
     68 H24        -15.3410    18.6680    -3.4070 hn         1 6EF       0.412000
     69 H26        -17.5260    20.5630    -2.9790 h1         1 6EF       0.064700
     70 H27        -17.5490    18.8170    -2.7760 h1         1 6EF       0.064700
     71 H28        -17.2800    18.4880    -5.1930 h1         1 6EF       0.044700
     72 H29        -19.4000    20.6010    -4.6040 hc         1 6EF       0.055700
     73 H30        -19.5730    18.8820    -4.3290 hc         1 6EF       0.055700
     74 H31        -21.6870    17.4910    -6.0270 hn         1 6EF       0.162000
     75 H32        -19.2340    20.2750    -7.0300 hc         1 6EF       0.050700
     76 H33        -20.7010    19.5490    -6.4040 hc         1 6EF       0.050700
     77 H34        -16.1320    22.3280    -3.7990 h1         1 6EF       0.065200
     78 H35        -14.8180    22.0110    -2.6500 h1         1 6EF       0.065200
     79 H36        -12.6850    23.2530    -6.4940 h1         1 6EF       0.058200
     80 H37        -11.3680    25.0840    -3.4960 ha         1 6EF       0.111000
     81 H38         -9.6210    24.1640    -2.0190 ha         1 6EF       0.113500
     82 H39         -8.5150    22.0180    -2.5850 ha         1 6EF       0.114000
     83 H40         -9.1750    20.8050    -4.6440 ha         1 6EF       0.113500
     84 H41        -10.9290    21.7300    -6.1170 ha         1 6EF       0.111000
     85 H25        -13.4170    25.7070    -5.1050 hn         1 6EF       0.331500
     86 H42        -11.8550    24.7980    -6.4960 h1         1 6EF       0.058200
     87 N32        -20.8940    16.9100    -5.8010 ns         1 6EF      -0.153000
     88 C33        -19.6120    19.4570    -6.4170 c3         1 6EF      -0.020100
     89 C34        -15.1190    21.9450    -3.6950 c3         1 6EF       0.191600
     90 O35        -14.2240    22.7380    -4.4970 os         1 6EF      -0.466100
@<TRIPOS>BOND
     1     1    15 1   
     2     1    18 1   
     3     1    19 2   
     4     2    18 1   
     5     2    45 1   
     6     2    46 1   
     7     2    47 1   
     8     3    10 ar  
     9     3    20 1   
    10     3    22 ar  
    11     4     5 ar  
    12     4    21 ar  
    13     4    48 1   
    14     5     6 ar  
    15     5    49 1   
    16     6     7 ar  
    17     6    50 1   
    18     7     8 ar  
    19     7    51 1   
    20     8    21 ar  
    21     8    52 1   
    22     9    22 ar  
    23     9    23 ar  
    24     9    53 1   
    25    10    24 ar  
    26    10    54 1   
    27    11    12 ar  
    28    11    25 ar  
    29    11    88 1   
    30    12    13 ar  
    31    12    55 1   
    32    13    26 ar  
    33    13    56 1   
    34    14    16 2   
    35    14    17 1   
    36    14    87 1   
    37    15    17 1   
    38    15    57 1   
    39    17    20 1   
    40    17    58 1   
    41    20    21 1   
    42    20    59 1   
    43    22    60 1   
    44    23    24 ar  
    45    23    61 1   
    46    24    62 1   
    47    25    27 ar  
    48    25    87 1   
    49    26    27 ar  
    50    26    63 1   
    51    27    64 1   
    52    28    29 1   
    53    28    33 1   
    54    28    65 1   
    55    28    66 1   
    56    29    30 1   
    57    29    67 1   
    58    29    89 1   
    59    30    31 1   
    60    30    68 1   
    61    31    32 1   
    62    31    69 1   
    63    31    70 1   
    64    32    33 1   
    65    32    34 1   
    66    32    71 1   
    67    34    72 1   
    68    34    73 1   
    69    34    88 1   
    70    35    36 1   
    71    35    37 2   
    72    35    90 1   
    73    36    38 1   
    74    36    85 1   
    75    38    39 1   
    76    38    79 1   
    77    38    86 1   
    78    39    40 ar  
    79    39    44 ar  
    80    40    41 ar  
    81    40    80 1   
    82    41    42 ar  
    83    41    81 1   
    84    42    43 ar  
    85    42    82 1   
    86    43    44 ar  
    87    43    83 1   
    88    44    84 1   
    89    74    87 1   
    90    75    88 1   
    91    76    88 1   
    92    77    89 1   
    93    78    89 1   
    94    89    90 1   
@<TRIPOS>SUBSTRUCTURE
     1 6EF         1 TEMP              0 ****  ****    0 ROOT
