@<TRIPOS>MOLECULE
6EF
   90    94     1     0     0
SMALL
No Charge or Current Charge


@<TRIPOS>ATOM
      1 C2         -24.7350    14.8280    -4.9560 c          1 6EF       0.641100
      2 C5         -26.6670    13.4860    -5.4100 c3         1 6EF       0.170900
      3 C7         -23.6980    16.2580    -1.9360 ca         1 6EF      -0.079800
      4 C9         -20.5970    17.6560    -1.5680 ca         1 6EF      -0.100750
      5 C10        -19.9710    18.8800    -1.2770 ca         1 6EF      -0.109750
      6 C11        -20.4020    20.0580    -1.9070 ca         1 6EF      -0.106500
      7 C12        -21.4520    20.0080    -2.8380 ca         1 6EF      -0.109750
      8 C13        -22.0740    18.7830    -3.1360 ca         1 6EF      -0.100750
      9 C15        -26.0250    16.9580    -1.6460 ca         1 6EF      -0.109750
     10 C18        -23.7820    15.5470    -0.7200 ca         1 6EF      -0.100750
     11 C20        -18.7210    17.6540    -6.7330 ca         1 6EF      -0.090300
     12 C21        -17.5890    17.6330    -7.5730 ca         1 6EF      -0.097000
     13 C22        -17.0930    16.4230    -8.0770 ca         1 6EF      -0.117000
     14 C          -21.1870    15.4580    -4.8600 c          1 6EF       0.586100
     15 N          -23.5010    14.7480    -4.3790 ns         1 6EF      -0.494900
     16 O          -20.7580    14.3110    -4.7560 o          1 6EF      -0.593100
     17 C1         -22.5480    15.8760    -4.2330 c3         1 6EF       0.063700
     18 O3         -25.3400    13.6120    -4.8670 os         1 6EF      -0.458100
     19 O4         -25.2070    15.8270    -5.4730 o          1 6EF      -0.550000
     20 C6         -22.3820    16.2620    -2.7280 c3         1 6EF       0.022900
     21 C8         -21.6570    17.5940    -2.4990 ca         1 6EF      -0.079800
     22 C14        -24.8310    16.9710    -2.3870 ca         1 6EF      -0.100750
     23 C16        -26.0990    16.2400    -0.4410 ca         1 6EF      -0.106500
     24 C17        -24.9760    15.5360     0.0220 ca         1 6EF      -0.109750
     25 C19        -19.3620    16.4380    -6.3830 ca         1 6EF      -0.042000
     26 C23        -17.7300    15.2200    -7.7490 ca         1 6EF      -0.102000
     27 C24        -18.8580    15.2260    -6.9130 ca         1 6EF      -0.102000
     28 C25        -15.1770    20.4130    -5.3000 c6         1 6EF       0.125600
     29 C26        -14.7180    20.6700    -3.8270 c6         1 6EF       0.125500
     30 N27        -15.3050    19.6500    -2.8920 n7         1 6EF      -0.847400
     31 C28        -16.7830    19.4980    -3.0660 c6         1 6EF       0.117800
     32 C29        -17.1780    19.2820    -4.5620 c6         1 6EF       0.128300
     33 O30        -16.6200    20.3380    -5.3790 os         1 6EF      -0.459000
     34 C31        -18.7170    19.2860    -4.7640 c3         1 6EF      -0.062400
     35 C36        -14.4370    24.3870    -3.8660 c          1 6EF       0.641100
     36 N37        -13.6730    25.1660    -4.6940 ns         1 6EF      -0.501900
     37 O38        -15.1380    24.8500    -2.9830 o          1 6EF      -0.544000
     38 C39        -12.8030    24.6790    -5.7690 c3         1 6EF       0.168300
     39 C40        -11.4820    24.1390    -5.2350 ca         1 6EF      -0.110300
     40 C41        -10.4930    25.0240    -4.7630 ca         1 6EF      -0.098500
     41 C42         -9.2740    24.5260    -4.2690 ca         1 6EF      -0.108500
     42 C43         -9.0370    23.1420    -4.2440 ca         1 6EF      -0.106000
     43 C44        -10.0200    22.2540    -4.7140 ca         1 6EF      -0.108500
     44 C45        -11.2380    22.7510    -5.2090 ca         1 6EF      -0.098500
     45 H1         -27.0390    12.4630    -5.2750 h1         1 6EF       0.050700
     46 H2         -27.3620    14.1700    -4.9080 h1         1 6EF       0.050700
     47 H3         -26.6730    13.7100    -6.4850 h1         1 6EF       0.050700
     48 H4         -20.2670    16.7570    -1.0530 ha         1 6EF       0.113250
     49 H5         -19.1590    18.9170    -0.5540 ha         1 6EF       0.115500
     50 H6         -19.9230    21.0070    -1.6760 ha         1 6EF       0.116000
     51 H7         -21.7880    20.9200    -3.3270 ha         1 6EF       0.115500
     52 H8         -22.8970    18.7740    -3.8450 ha         1 6EF       0.113250
     53 H9         -26.8930    17.5060    -2.0060 ha         1 6EF       0.115500
     54 H10        -22.9200    14.9990    -0.3450 ha         1 6EF       0.113250
     55 H11        -17.0860    18.5630    -7.8330 ha         1 6EF       0.121000
     56 H12        -16.2180    16.4190    -8.7240 ha         1 6EF       0.114000
     57 H13        -23.2430    13.8380    -4.0180 hn         1 6EF       0.342500
     58 H14        -22.9300    16.7340    -4.7990 h1         1 6EF       0.086700
     59 H15        -21.7560    15.4660    -2.3040 hc         1 6EF       0.076700
     60 H16        -24.7940    17.5320    -3.3160 ha         1 6EF       0.113250
     61 H17        -27.0230    16.2310     0.1330 ha         1 6EF       0.116000
     62 H18        -25.0300    14.9820     0.9560 ha         1 6EF       0.115500
     63 H19        -17.3540    14.2800    -8.1470 ha         1 6EF       0.117000
     64 H20        -19.3370    14.2750    -6.7030 ha         1 6EF       0.127000
     65 H21        -14.7490    19.4680    -5.6650 h1         1 6EF       0.053700
     66 H22        -14.8200    21.2170    -5.9590 h1         1 6EF       0.053700
     67 H23        -13.6210    20.5800    -3.7910 h1         1 6EF       0.073700
     68 H24        -14.8700    18.7420    -3.1030 hn         1 6EF       0.412000
     69 H26        -17.2930    20.3970    -2.6880 h1         1 6EF       0.064700
     70 H27        -17.1420    18.6490    -2.4650 h1         1 6EF       0.064700
     71 H28        -16.7760    18.3160    -4.9030 h1         1 6EF       0.044700
     72 H29        -19.1190    20.2570    -4.4520 hc         1 6EF       0.055700
     73 H30        -19.1640    18.5380    -4.1010 hc         1 6EF       0.055700
     74 H31        -20.9620    17.3760    -5.4890 hn         1 6EF       0.162000
     75 H32        -18.8580    19.8150    -6.8570 hc         1 6EF       0.050700
     76 H33        -20.2980    19.0620    -6.2290 hc         1 6EF       0.050700
     77 H34        -16.1330    22.2970    -3.4550 h1         1 6EF       0.065200
     78 H35        -14.7820    22.2180    -2.3000 h1         1 6EF       0.065200
     79 H36        -13.3290    23.9040    -6.3420 h1         1 6EF       0.058200
     80 H37        -10.6690    26.0970    -4.7780 ha         1 6EF       0.111000
     81 H38         -8.5140    25.2150    -3.9050 ha         1 6EF       0.113500
     82 H39         -8.0940    22.7570    -3.8610 ha         1 6EF       0.114000
     83 H40         -9.8380    21.1820    -4.6940 ha         1 6EF       0.113500
     84 H41        -11.9940    22.0560    -5.5680 ha         1 6EF       0.111000
     85 H25        -13.7200    26.1620    -4.5260 hn         1 6EF       0.331500
     86 H42        -12.6010    25.5120    -6.4550 h1         1 6EF       0.058200
     87 N32        -20.5200    16.4670    -5.5470 ns         1 6EF      -0.153000
     88 C33        -19.2030    19.0050    -6.2030 c3         1 6EF      -0.020100
     89 C34        -15.0540    22.1220    -3.3590 c3         1 6EF       0.191600
     90 O35        -14.3090    23.0610    -4.1580 os         1 6EF      -0.466100
@<TRIPOS>BOND
     1     1    15 1   
     2     1    18 1   
     3     1    19 2   
     4     2    18 1   
     5     2    45 1   
     6     2    46 1   
     7     2    47 1   
     8     3    10 ar  
     9     3    20 1   
    10     3    22 ar  
    11     4     5 ar  
    12     4    21 ar  
    13     4    48 1   
    14     5     6 ar  
    15     5    49 1   
    16     6     7 ar  
    17     6    50 1   
    18     7     8 ar  
    19     7    51 1   
    20     8    21 ar  
    21     8    52 1   
    22     9    22 ar  
    23     9    23 ar  
    24     9    53 1   
    25    10    24 ar  
    26    10    54 1   
    27    11    12 ar  
    28    11    25 ar  
    29    11    88 1   
    30    12    13 ar  
    31    12    55 1   
    32    13    26 ar  
    33    13    56 1   
    34    14    16 2   
    35    14    17 1   
    36    14    87 1   
    37    15    17 1   
    38    15    57 1   
    39    17    20 1   
    40    17    58 1   
    41    20    21 1   
    42    20    59 1   
    43    22    60 1   
    44    23    24 ar  
    45    23    61 1   
    46    24    62 1   
    47    25    27 ar  
    48    25    87 1   
    49    26    27 ar  
    50    26    63 1   
    51    27    64 1   
    52    28    29 1   
    53    28    33 1   
    54    28    65 1   
    55    28    66 1   
    56    29    30 1   
    57    29    67 1   
    58    29    89 1   
    59    30    31 1   
    60    30    68 1   
    61    31    32 1   
    62    31    69 1   
    63    31    70 1   
    64    32    33 1   
    65    32    34 1   
    66    32    71 1   
    67    34    72 1   
    68    34    73 1   
    69    34    88 1   
    70    35    36 1   
    71    35    37 2   
    72    35    90 1   
    73    36    38 1   
    74    36    85 1   
    75    38    39 1   
    76    38    79 1   
    77    38    86 1   
    78    39    40 ar  
    79    39    44 ar  
    80    40    41 ar  
    81    40    80 1   
    82    41    42 ar  
    83    41    81 1   
    84    42    43 ar  
    85    42    82 1   
    86    43    44 ar  
    87    43    83 1   
    88    44    84 1   
    89    74    87 1   
    90    75    88 1   
    91    76    88 1   
    92    77    89 1   
    93    78    89 1   
    94    89    90 1   
@<TRIPOS>SUBSTRUCTURE
     1 6EF         1 TEMP              0 ****  ****    0 ROOT
