@<TRIPOS>MOLECULE
6EG
   80    83     1     0     0
SMALL
abcg2


@<TRIPOS>ATOM
      1 C2           1.6200     1.2480    -0.2700 c3         1 6EG      -0.032100
      2 C3           0.9620     2.6020    -0.3510 ca         1 6EG      -0.088300
      3 C5           1.1670     4.9720    -0.8460 ca         1 6EG      -0.112000
      4 C7          -0.9540     4.0790    -0.1790 ca         1 6EG      -0.103000
      5 C10         -2.3630     1.3740    -0.1640 c          1 6EG       0.581100
      6 C11         -3.1310     0.2990     0.6140 c3         1 6EG       0.077700
      7 C18         -2.1320    -1.5260    -0.7590 ca         1 6EG      -0.076800
      8 C20         -0.1360    -2.8250    -0.3460 ca         1 6EG      -0.112000
      9 C21          0.2320    -2.7050    -1.6800 ca         1 6EG      -0.110000
     10 C22         -0.5700    -1.9810    -2.5490 ca         1 6EG      -0.112000
     11 C            3.0750    -0.4590    -1.5040 c3         1 6EG       0.179500
     12 N            4.3070    -0.2350    -0.7610 n7         1 6EG      -0.855400
     13 O           -2.8090     1.8680    -1.1820 o          1 6EG      -0.553100
     14 C1           2.2610     0.8310    -1.5980 c3         1 6EG      -0.077400
     15 C4           1.7240     3.7110    -0.7230 ca         1 6EG      -0.100000
     16 C6          -0.1850     5.1560    -0.5800 ca         1 6EG      -0.101000
     17 C8          -0.3880     2.8090    -0.0620 ca         1 6EG      -0.041000
     18 N9          -1.1940     1.7430     0.3990 ns         1 6EG      -0.166000
     19 N12         -4.2850     0.8950     1.2460 ns         1 6EG      -0.503900
     20 O14         -6.2960     1.7290     1.5500 os         1 6EG      -0.465100
     21 O15         -5.7700     0.9550    -0.4940 o          1 6EG      -0.515000
     22 C16         -7.5940     2.0840     1.0850 c3         1 6EG       0.171900
     23 C17         -3.4340    -0.9010    -0.2940 c3         1 6EG       0.021900
     24 C19         -1.3080    -2.2400     0.1100 ca         1 6EG      -0.098250
     25 C23         -1.7420    -1.3950    -2.0880 ca         1 6EG      -0.098250
     26 C24          4.8890    -1.4460    -0.2120 c3         1 6EG       0.215100
     27 C25          6.1290    -1.1450     0.5830 ca         1 6EG      -0.137300
     28 C26          7.1870    -0.4340     0.0180 ca         1 6EG      -0.056500
     29 C27          8.3370    -0.1570     0.7350 ca         1 6EG      -0.181500
     30 C28          8.4740    -0.5830     2.0640 ca         1 6EG       0.287000
     31 C29          7.4140    -1.2920     2.6350 ca         1 6EG      -0.181500
     32 C30          6.2660    -1.5600     1.9020 ca         1 6EG      -0.056500
     33 C31          3.3640    -1.0200    -2.8890 c3         1 6EG       0.170600
     34 O32          4.0770    -0.0780    -3.6540 oh         1 6EG      -0.641000
     35 C33         -4.3410    -1.9220     0.3540 ca         1 6EG      -0.076800
     36 C34         -5.2340    -2.6280    -0.4470 ca         1 6EG      -0.098250
     37 C35         -6.0540    -3.6120     0.0870 ca         1 6EG      -0.112000
     38 C36         -5.9970    -3.9040     1.4440 ca         1 6EG      -0.110000
     39 C37         -5.1160    -3.2020     2.2550 ca         1 6EG      -0.112000
     40 C38         -4.2970    -2.2190     1.7140 ca         1 6EG      -0.098250
     41 N39          9.5980    -0.2610     2.8000 nv         1 6EG      -1.067000
     42 H1           2.3680     1.2820     0.5290 hc         1 6EG       0.042200
     43 H2           0.9000     0.4810     0.0190 hc         1 6EG       0.042200
     44 H3           1.7840     5.8100    -1.1410 ha         1 6EG       0.115000
     45 H4          -1.9970     4.2240     0.0690 ha         1 6EG       0.125000
     46 H5          -2.5110    -0.0510     1.4420 h1         1 6EG       0.049700
     47 H6           0.4870    -3.3840     0.3400 ha         1 6EG       0.112250
     48 H7           1.1390    -3.1750    -2.0380 ha         1 6EG       0.111000
     49 H8          -0.2890    -1.8750    -3.5890 ha         1 6EG       0.112250
     50 H9           2.4420    -1.2130    -1.0030 h1         1 6EG       0.021700
     51 H10          4.1280     0.3990     0.0070 hn         1 6EG       0.415000
     52 H12          1.4630     0.6890    -2.3320 hc         1 6EG       0.064200
     53 H13          2.8990     1.6280    -1.9850 hc         1 6EG       0.064200
     54 H14          2.7810     3.5800    -0.9250 ha         1 6EG       0.119000
     55 H15         -0.6330     6.1370    -0.6660 ha         1 6EG       0.116000
     56 H16         -0.8780     1.2420     1.2150 hn         1 6EG       0.151000
     57 H17         -4.1750     1.1600     2.2120 hn         1 6EG       0.327500
     58 H18         -8.1480     1.2150     0.7290 h1         1 6EG       0.048033
     59 H19         -8.1110     2.5080     1.9410 h1         1 6EG       0.048033
     60 H20         -7.5480     2.8280     0.2900 h1         1 6EG       0.048033
     61 H21         -3.9450    -0.5280    -1.1820 hc         1 6EG       0.108700
     62 H22         -1.5830    -2.3660     1.1510 ha         1 6EG       0.114250
     63 H23         -2.3670    -0.8330    -2.7720 ha         1 6EG       0.114250
     64 H24          4.1790    -2.0070     0.4160 h1         1 6EG       0.028200
     65 H25          5.1430    -2.1150    -1.0400 h1         1 6EG       0.028200
     66 H26          7.1090    -0.0900    -1.0070 ha         1 6EG       0.116000
     67 H27          9.1430     0.3960     0.2670 ha         1 6EG       0.111000
     68 H28          7.4890    -1.6340     3.6610 ha         1 6EG       0.111000
     69 H29          5.4610    -2.1110     2.3760 ha         1 6EG       0.116000
     70 H30          3.9200    -1.9640    -2.8000 h1         1 6EG       0.013700
     71 H31          2.4010    -1.2740    -3.3520 h1         1 6EG       0.013700
     72 H32          4.1440    -0.4150    -4.5510 ho         1 6EG       0.435000
     73 H33         -5.2900    -2.4040    -1.5060 ha         1 6EG       0.114250
     74 H34         -6.7420    -4.1460    -0.5560 ha         1 6EG       0.112250
     75 H35         -6.6360    -4.6680     1.8670 ha         1 6EG       0.111000
     76 H36         -5.0650    -3.4160     3.3140 ha         1 6EG       0.112250
     77 H37         -3.6250    -1.6840     2.3740 ha         1 6EG       0.114250
     78 H38         10.4340    -0.1020     2.2610 hn         1 6EG       0.444000
     79 H39          9.7810    -0.8600     3.5890 hn         1 6EG       0.444000
     80 C13         -5.4670     1.1740     0.6580 c          1 6EG       0.647100
@<TRIPOS>BOND
     1     1     2 1   
     2     1    14 1   
     3     1    42 1   
     4     1    43 1   
     5     2    15 ar  
     6     2    17 ar  
     7     3    15 ar  
     8     3    16 ar  
     9     3    44 1   
    10     4    16 ar  
    11     4    17 ar  
    12     4    45 1   
    13     5     6 1   
    14     5    13 2   
    15     5    18 1   
    16     6    19 1   
    17     6    23 1   
    18     6    46 1   
    19     7    23 1   
    20     7    24 ar  
    21     7    25 ar  
    22     8     9 ar  
    23     8    24 ar  
    24     8    47 1   
    25     9    10 ar  
    26     9    48 1   
    27    10    25 ar  
    28    10    49 1   
    29    11    12 1   
    30    11    14 1   
    31    11    33 1   
    32    11    50 1   
    33    12    26 1   
    34    12    51 1   
    35    14    52 1   
    36    14    53 1   
    37    15    54 1   
    38    16    55 1   
    39    17    18 1   
    40    18    56 1   
    41    19    57 1   
    42    19    80 1   
    43    20    22 1   
    44    20    80 1   
    45    21    80 2   
    46    22    58 1   
    47    22    59 1   
    48    22    60 1   
    49    23    35 1   
    50    23    61 1   
    51    24    62 1   
    52    25    63 1   
    53    26    27 1   
    54    26    64 1   
    55    26    65 1   
    56    27    28 ar  
    57    27    32 ar  
    58    28    29 ar  
    59    28    66 1   
    60    29    30 ar  
    61    29    67 1   
    62    30    31 ar  
    63    30    41 1   
    64    31    32 ar  
    65    31    68 1   
    66    32    69 1   
    67    33    34 1   
    68    33    70 1   
    69    33    71 1   
    70    34    72 1   
    71    35    36 ar  
    72    35    40 ar  
    73    36    37 ar  
    74    36    73 1   
    75    37    38 ar  
    76    37    74 1   
    77    38    39 ar  
    78    38    75 1   
    79    39    40 ar  
    80    39    76 1   
    81    40    77 1   
    82    41    78 1   
    83    41    79 1   
@<TRIPOS>SUBSTRUCTURE
     1 6EG         1 TEMP              0 ****  ****    0 ROOT
