@<TRIPOS>MOLECULE
6EG
   80    83     1     0     0
SMALL
No Charge or Current Charge


@<TRIPOS>ATOM
      1 C2           1.8400     1.3530    -0.6080 c3         1 6EG      -0.032100
      2 C3           1.0650     2.5760    -1.1140 ca         1 6EG      -0.088300
      3 C5           1.1400     4.7600    -2.2130 ca         1 6EG      -0.112000
      4 C7          -0.9820     3.8700    -1.4360 ca         1 6EG      -0.103000
      5 C10         -2.2690     1.7140     0.4000 c          1 6EG       0.581100
      6 C11         -2.7900     0.3110     0.8520 c3         1 6EG       0.077700
      7 C18         -2.3090    -0.9030    -1.3700 ca         1 6EG      -0.076800
      8 C20         -0.2880    -2.1390    -1.9730 ca         1 6EG      -0.112000
      9 C21         -0.3700    -1.6450    -3.2850 ca         1 6EG      -0.110000
     10 C22         -1.4120    -0.7750    -3.6400 ca         1 6EG      -0.112000
     11 C            3.1010    -0.8170    -1.3130 c3         1 6EG       0.179500
     12 N            4.2530    -0.5060    -0.4260 n7         1 6EG      -0.855400
     13 O           -2.8350     2.7640     0.6930 o          1 6EG      -0.553100
     14 C1           2.4170     0.5000    -1.7650 c3         1 6EG      -0.077400
     15 C4           1.7900     3.6100    -1.7400 ca         1 6EG      -0.100000
     16 C6          -0.2480     4.8880    -2.0650 ca         1 6EG      -0.101000
     17 C8          -0.3380     2.7120    -0.9470 ca         1 6EG      -0.041000
     18 N9          -1.0830     1.6760    -0.3220 ns         1 6EG      -0.166000
     19 N12         -3.7310     0.4370     1.9980 ns         1 6EG      -0.503900
     20 O14         -5.5650     0.7800     3.1920 os         1 6EG      -0.465100
     21 O15         -5.6350     1.1910     0.9310 o          1 6EG      -0.515000
     22 C16         -6.9450     1.1520     3.3560 c3         1 6EG       0.171900
     23 C17         -3.3780    -0.5070    -0.3470 c3         1 6EG       0.021900
     24 C19         -1.2490    -1.7670    -1.0180 ca         1 6EG      -0.098250
     25 C23         -2.3790    -0.4090    -2.6890 ca         1 6EG      -0.098250
     26 C24          4.8190    -1.6400     0.3230 c3         1 6EG       0.215100
     27 C25          5.8910    -1.1450     1.2800 ca         1 6EG      -0.137300
     28 C26          7.2010    -0.9120     0.8180 ca         1 6EG      -0.056500
     29 C27          8.1940    -0.4580     1.7050 ca         1 6EG      -0.181500
     30 C28          7.8850    -0.2350     3.0540 ca         1 6EG       0.287000
     31 C29          6.5820    -0.4640     3.5190 ca         1 6EG      -0.181500
     32 C30          5.5850    -0.9180     2.6370 ca         1 6EG      -0.056500
     33 C31          3.4980    -1.7260    -2.5300 c3         1 6EG       0.170600
     34 O32          4.4540    -1.0980    -3.4050 oh         1 6EG      -0.641000
     35 C33         -4.1790    -1.7530     0.0690 ca         1 6EG      -0.076800
     36 C34         -5.3480    -2.0910    -0.6450 ca         1 6EG      -0.098250
     37 C35         -6.0990    -3.2260    -0.2930 ca         1 6EG      -0.112000
     38 C36         -5.6860    -4.0400     0.7740 ca         1 6EG      -0.110000
     39 C37         -4.5200    -3.7190     1.4870 ca         1 6EG      -0.112000
     40 C38         -3.7680    -2.5840     1.1360 ca         1 6EG      -0.098250
     41 N39          8.8520     0.2050     3.9150 nv         1 6EG      -1.067000
     42 H1           2.6630     1.6990     0.0290 hc         1 6EG       0.042200
     43 H2           1.2250     0.7110     0.0320 hc         1 6EG       0.042200
     44 H3           1.7110     5.5490    -2.6970 ha         1 6EG       0.115000
     45 H4          -2.0590     3.9860    -1.3500 ha         1 6EG       0.125000
     46 H5          -1.9150    -0.2300     1.2310 h1         1 6EG       0.049700
     47 H6           0.5160    -2.8170    -1.6960 ha         1 6EG       0.112250
     48 H7           0.3710    -1.9360    -4.0260 ha         1 6EG       0.111000
     49 H8          -1.4760    -0.3900    -4.6560 ha         1 6EG       0.112250
     50 H9           2.3540    -1.3760    -0.7320 h1         1 6EG       0.021700
     51 H10          3.9360     0.1770     0.2670 hn         1 6EG       0.415000
     52 H12          1.5980     0.2530    -2.4500 hc         1 6EG       0.064200
     53 H13          3.1310     1.1010    -2.3390 hc         1 6EG       0.064200
     54 H14          2.8680     3.5240    -1.8600 ha         1 6EG       0.119000
     55 H15         -0.7560     5.7740    -2.4380 ha         1 6EG       0.116000
     56 H16         -0.6920     0.7510    -0.4480 hn         1 6EG       0.151000
     57 H17         -3.4050     0.1900     2.9240 hn         1 6EG       0.327500
     58 H18         -7.5990     0.5020     2.7600 h1         1 6EG       0.048033
     59 H19         -7.2430     1.0610     4.4080 h1         1 6EG       0.048033
     60 H20         -7.1100     2.1910     3.0450 h1         1 6EG       0.048033
     61 H21         -4.0810     0.1710    -0.8470 hc         1 6EG       0.108700
     62 H22         -1.1730    -2.1640    -0.0100 ha         1 6EG       0.114250
     63 H23         -3.1860     0.2590    -2.9850 ha         1 6EG       0.114250
     64 H24          4.0320    -2.1510     0.8950 h1         1 6EG       0.028200
     65 H25          5.2620    -2.3770    -0.3610 h1         1 6EG       0.028200
     66 H26          7.4460    -1.0800    -0.2290 ha         1 6EG       0.116000
     67 H27          9.2010    -0.2800     1.3380 ha         1 6EG       0.111000
     68 H28          6.3370    -0.2920     4.5640 ha         1 6EG       0.111000
     69 H29          4.5770    -1.0930     3.0080 ha         1 6EG       0.116000
     70 H30          3.9010    -2.6760    -2.1550 h1         1 6EG       0.013700
     71 H31          2.5890    -1.9700    -3.0950 h1         1 6EG       0.013700
     72 H32          4.7110    -1.7680    -4.0740 ho         1 6EG       0.435000
     73 H33         -5.6780    -1.4720    -1.4760 ha         1 6EG       0.114250
     74 H34         -7.0000    -3.4740    -0.8490 ha         1 6EG       0.112250
     75 H35         -6.2670    -4.9180     1.0460 ha         1 6EG       0.111000
     76 H36         -4.1970    -4.3500     2.3110 ha         1 6EG       0.112250
     77 H37         -2.8680    -2.3560     1.7000 ha         1 6EG       0.114250
     78 H38          9.8240     0.2380     3.6120 hn         1 6EG       0.444000
     79 H39          8.6680     0.2340     4.9160 hn         1 6EG       0.444000
     80 C13         -5.0390     0.8380     1.9370 c          1 6EG       0.647100
@<TRIPOS>BOND
     1     1     2 1   
     2     1    14 1   
     3     1    42 1   
     4     1    43 1   
     5     2    15 ar  
     6     2    17 ar  
     7     3    15 ar  
     8     3    16 ar  
     9     3    44 1   
    10     4    16 ar  
    11     4    17 ar  
    12     4    45 1   
    13     5     6 1   
    14     5    13 2   
    15     5    18 1   
    16     6    19 1   
    17     6    23 1   
    18     6    46 1   
    19     7    23 1   
    20     7    24 ar  
    21     7    25 ar  
    22     8     9 ar  
    23     8    24 ar  
    24     8    47 1   
    25     9    10 ar  
    26     9    48 1   
    27    10    25 ar  
    28    10    49 1   
    29    11    12 1   
    30    11    14 1   
    31    11    33 1   
    32    11    50 1   
    33    12    26 1   
    34    12    51 1   
    35    14    52 1   
    36    14    53 1   
    37    15    54 1   
    38    16    55 1   
    39    17    18 1   
    40    18    56 1   
    41    19    57 1   
    42    19    80 1   
    43    20    22 1   
    44    20    80 1   
    45    21    80 2   
    46    22    58 1   
    47    22    59 1   
    48    22    60 1   
    49    23    35 1   
    50    23    61 1   
    51    24    62 1   
    52    25    63 1   
    53    26    27 1   
    54    26    64 1   
    55    26    65 1   
    56    27    28 ar  
    57    27    32 ar  
    58    28    29 ar  
    59    28    66 1   
    60    29    30 ar  
    61    29    67 1   
    62    30    31 ar  
    63    30    41 1   
    64    31    32 ar  
    65    31    68 1   
    66    32    69 1   
    67    33    34 1   
    68    33    70 1   
    69    33    71 1   
    70    34    72 1   
    71    35    36 ar  
    72    35    40 ar  
    73    36    37 ar  
    74    36    73 1   
    75    37    38 ar  
    76    37    74 1   
    77    38    39 ar  
    78    38    75 1   
    79    39    40 ar  
    80    39    76 1   
    81    40    77 1   
    82    41    78 1   
    83    41    79 1   
@<TRIPOS>SUBSTRUCTURE
     1 6EG         1 TEMP              0 ****  ****    0 ROOT
