@<TRIPOS>MOLECULE
6EH
   62    64     1     0     0
SMALL
No Charge or Current Charge


@<TRIPOS>ATOM
      1 C2          -6.9560     0.6320     2.7750 c6         1 6EH       0.110800
      2 C3          -6.7400     0.6470     0.3150 c6         1 6EH       0.115800
      3 C11          4.2870     3.2200     2.5190 c3         1 6EH       0.172900
      4 C12          1.7250    -0.5720    -0.3670 c3         1 6EH       0.023900
      5 C13          3.1290    -1.1400    -0.1090 ca         1 6EH      -0.076300
      6 C15          3.3710    -1.8790     1.0680 ca         1 6EH      -0.101250
      7 C18          5.4590    -1.4940    -0.7680 ca         1 6EH      -0.110750
      8 C20         -0.1790    -2.2460    -0.6290 ca         1 6EH      -0.101250
      9 C21         -0.9530    -3.1330    -1.3960 ca         1 6EH      -0.110750
     10 C22         -0.6400    -3.3530    -2.7460 ca         1 6EH      -0.105500
     11 C           -5.2120     0.3510     0.4720 c6         1 6EH       0.132300
     12 N           -7.5270     0.1470     1.4820 n7         1 6EH      -0.839400
     13 O           -4.7340     0.8850     1.7300 os         1 6EH      -0.450000
     14 C1          -5.4280     0.3420     2.8790 c6         1 6EH       0.118600
     15 C4           0.2980     1.5300    -0.9470 c          1 6EH       0.575100
     16 O5           0.0230     2.5430    -0.3130 o          1 6EH      -0.577100
     17 C6           1.7210     0.8770    -0.9650 c3         1 6EH       0.072700
     18 N7           2.7260     1.7760    -0.3380 ns         1 6EH      -0.493900
     19 C8           2.8910     1.9950     1.0030 c          1 6EH       0.651100
     20 O9           2.2150     1.5110     1.8970 o          1 6EH      -0.521000
     21 O10          3.9330     2.8560     1.1730 os         1 6EH      -0.465100
     22 C14          0.9140    -1.5650    -1.2060 ca         1 6EH      -0.076300
     23 C16          4.6450    -2.4140     1.3280 ca         1 6EH      -0.110750
     24 C17          5.6900    -2.2210     0.4100 ca         1 6EH      -0.105500
     25 C19          4.1860    -0.9580    -1.0290 ca         1 6EH      -0.101250
     26 C23          0.4500    -2.6860    -3.3290 ca         1 6EH      -0.110750
     27 C24          1.2240    -1.7980    -2.5640 ca         1 6EH      -0.101250
     28 N25         -0.6500     0.8940    -1.7250 ns         1 6EH      -0.500900
     29 C26         -2.0660     1.2580    -1.7890 c3         1 6EH       0.098000
     30 C28         -4.3680     0.9860    -0.6690 c3         1 6EH      -0.061400
     31 H1          -7.1160     1.7170     2.8620 h1         1 6EH       0.062700
     32 H2          -7.4790     0.1560     3.6180 h1         1 6EH       0.062700
     33 H3          -6.8840     1.7340     0.2170 h1         1 6EH       0.063200
     34 H4          -7.1120     0.1850    -0.6120 h1         1 6EH       0.063200
     35 H5           3.4460     3.7140     3.0250 h1         1 6EH       0.046700
     36 H6           4.5710     2.3340     3.1020 h1         1 6EH       0.046700
     37 H7           5.1370     3.9130     2.5170 h1         1 6EH       0.046700
     38 H8           1.2290    -0.4830     0.6070 hc         1 6EH       0.105700
     39 H9           2.5710    -2.0390     1.7870 ha         1 6EH       0.113250
     40 H10          6.2670    -1.3460    -1.4820 ha         1 6EH       0.112500
     41 H11         -0.4380    -2.0830     0.4150 ha         1 6EH       0.113250
     42 H12         -1.7960    -3.6500    -0.9420 ha         1 6EH       0.112500
     43 H13         -1.2390    -4.0400    -3.3400 ha         1 6EH       0.112000
     44 H14         -5.0500    -0.7370     0.4640 h1         1 6EH       0.026700
     45 H15         -7.4780    -0.8810     1.4800 hn         1 6EH       0.402000
     46 H17         -5.0210     0.7980     3.7920 h1         1 6EH       0.045200
     47 H18         -5.2500    -0.7420     2.9290 h1         1 6EH       0.045200
     48 H19          1.9980     0.8040    -2.0230 h1         1 6EH       0.051700
     49 H20          3.3720     2.2750    -0.9360 hn         1 6EH       0.325500
     50 H21          4.8200    -2.9800     2.2400 ha         1 6EH       0.112500
     51 H22          6.6750    -2.6350     0.6110 ha         1 6EH       0.112000
     52 H23          4.0290    -0.4010    -1.9480 ha         1 6EH       0.113250
     53 H24          0.6950    -2.8580    -4.3750 ha         1 6EH       0.112500
     54 H25          2.0640    -1.2910    -3.0330 ha         1 6EH       0.113250
     55 H26         -0.3510     0.0550    -2.2090 hn         1 6EH       0.308500
     56 H27         -2.1620     2.3520    -1.7800 h1         1 6EH       0.056200
     57 H28         -2.4760     0.8900    -2.7390 h1         1 6EH       0.056200
     58 H29         -2.7320    -0.4390    -0.6230 hc         1 6EH       0.053700
     59 H30         -2.4380     1.0160     0.3290 hc         1 6EH       0.053700
     60 H31         -4.7620     0.6460    -1.6350 hc         1 6EH       0.050200
     61 H32         -4.4910     2.0760    -0.6550 hc         1 6EH       0.050200
     62 C27         -2.8590     0.6510    -0.6150 c3         1 6EH      -0.098400
@<TRIPOS>BOND
     1     1    12 1   
     2     1    14 1   
     3     1    31 1   
     4     1    32 1   
     5     2    11 1   
     6     2    12 1   
     7     2    33 1   
     8     2    34 1   
     9     3    21 1   
    10     3    35 1   
    11     3    36 1   
    12     3    37 1   
    13     4     5 1   
    14     4    17 1   
    15     4    22 1   
    16     4    38 1   
    17     5     6 ar  
    18     5    25 ar  
    19     6    23 ar  
    20     6    39 1   
    21     7    24 ar  
    22     7    25 ar  
    23     7    40 1   
    24     8     9 ar  
    25     8    22 ar  
    26     8    41 1   
    27     9    10 ar  
    28     9    42 1   
    29    10    26 ar  
    30    10    43 1   
    31    11    13 1   
    32    11    30 1   
    33    11    44 1   
    34    12    45 1   
    35    13    14 1   
    36    14    46 1   
    37    14    47 1   
    38    15    16 2   
    39    15    17 1   
    40    15    28 1   
    41    17    18 1   
    42    17    48 1   
    43    18    19 1   
    44    18    49 1   
    45    19    20 2   
    46    19    21 1   
    47    22    27 ar  
    48    23    24 ar  
    49    23    50 1   
    50    24    51 1   
    51    25    52 1   
    52    26    27 ar  
    53    26    53 1   
    54    27    54 1   
    55    28    29 1   
    56    28    55 1   
    57    29    56 1   
    58    29    57 1   
    59    29    62 1   
    60    30    60 1   
    61    30    61 1   
    62    30    62 1   
    63    58    62 1   
    64    59    62 1   
@<TRIPOS>SUBSTRUCTURE
     1 6EH         1 TEMP              0 ****  ****    0 ROOT
