@<TRIPOS>MOLECULE
6EH
   62    64     1     0     0
SMALL
abcg2


@<TRIPOS>ATOM
      1 C2          -7.2020    -1.3870     0.8100 c6         1 6EH       0.110800
      2 C3          -6.6880     0.8350     0.0800 c6         1 6EH       0.115800
      3 C11          5.6190     3.5790     0.6560 c3         1 6EH       0.172900
      4 C12          1.9500    -0.2390     0.3570 c3         1 6EH       0.023900
      5 C13          3.1980    -1.0590     0.1210 ca         1 6EH      -0.076300
      6 C15          3.7990    -1.6850     1.2130 ca         1 6EH      -0.101250
      7 C18          4.8640    -2.0700    -1.3080 ca         1 6EH      -0.110750
      8 C20         -0.1700    -1.1050     1.4070 ca         1 6EH      -0.101250
      9 C21         -1.3350    -1.8610     1.3840 ca         1 6EH      -0.110750
     10 C22         -1.6440    -2.6290     0.2710 ca         1 6EH      -0.105500
     11 C           -5.3210     0.3470    -0.3950 c6         1 6EH       0.132300
     12 N           -7.6950    -0.2140     0.1030 n7         1 6EH      -0.839400
     13 O           -4.9090    -0.7670     0.3740 os         1 6EH      -0.450000
     14 C1          -5.8340    -1.8300     0.3180 c6         1 6EH       0.118600
     15 C4           0.5690     1.7710    -0.2520 c          1 6EH       0.575100
     16 O5           0.6150     2.5660     0.6710 o          1 6EH      -0.577100
     17 C6           1.7940     0.9320    -0.6350 c3         1 6EH       0.072700
     18 N7           2.9630     1.7630    -0.7680 ns         1 6EH      -0.493900
     19 C8           3.7430     2.2250     0.2310 c          1 6EH       0.651100
     20 O9           3.6640     1.9380     1.4050 o          1 6EH      -0.521000
     21 O10          4.6720     3.0520    -0.2660 os         1 6EH      -0.465100
     22 C14          0.7040    -1.1030     0.3230 ca         1 6EH      -0.076300
     23 C16          4.9040    -2.4980     1.0470 ca         1 6EH      -0.110750
     24 C17          5.4440    -2.6950    -0.2160 ca         1 6EH      -0.105500
     25 C19          3.7510    -1.2590    -1.1410 ca         1 6EH      -0.101250
     26 C23         -0.7760    -2.6410    -0.8130 ca         1 6EH      -0.110750
     27 C24          0.3880    -1.8870    -0.7850 ca         1 6EH      -0.101250
     28 N25         -0.5220     1.5490    -1.0010 ns         1 6EH      -0.500900
     29 C26         -1.8410     2.0580    -0.6900 c3         1 6EH       0.098000
     30 C28         -4.2530     1.4190    -0.2950 c3         1 6EH      -0.061400
     31 H1          -7.1440    -1.1480     1.8770 h1         1 6EH       0.062700
     32 H2          -7.9200    -2.2030     0.7030 h1         1 6EH       0.062700
     33 H3          -6.5910     1.2420     1.0940 h1         1 6EH       0.063200
     34 H4          -7.0340     1.6500    -0.5590 h1         1 6EH       0.063200
     35 H5           5.1440     4.2010     1.4140 h1         1 6EH       0.046700
     36 H6           6.1900     2.7910     1.1460 h1         1 6EH       0.046700
     37 H7           6.2950     4.1930     0.0690 h1         1 6EH       0.046700
     38 H8           2.0180     0.1850     1.3580 hc         1 6EH       0.105700
     39 H9           3.3890    -1.5350     2.2050 ha         1 6EH       0.113250
     40 H10          5.2780    -2.2090    -2.2980 ha         1 6EH       0.112500
     41 H11          0.0580    -0.5010     2.2770 ha         1 6EH       0.113250
     42 H12         -2.0050    -1.8410     2.2330 ha         1 6EH       0.112500
     43 H13         -2.5530    -3.2150     0.2480 ha         1 6EH       0.112000
     44 H14         -5.4200     0.0420    -1.4520 h1         1 6EH       0.026700
     45 H15         -7.9250    -0.4750    -0.8500 hn         1 6EH       0.402000
     46 H17         -5.4360    -2.6380     0.9360 h1         1 6EH       0.045200
     47 H18         -5.9190    -2.2120    -0.7110 h1         1 6EH       0.045200
     48 H19          1.6350     0.5090    -1.6310 h1         1 6EH       0.051700
     49 H20          3.1340     2.1320    -1.6890 hn         1 6EH       0.325500
     50 H21          5.3510    -2.9760     1.9090 ha         1 6EH       0.112500
     51 H22          6.3130    -3.3270    -0.3460 ha         1 6EH       0.112000
     52 H23          3.3270    -0.7780    -2.0130 ha         1 6EH       0.113250
     53 H24         -1.0030    -3.2450    -1.6820 ha         1 6EH       0.112500
     54 H25          1.0600    -1.9240    -1.6340 ha         1 6EH       0.113250
     55 H26         -0.4680     0.8460    -1.7200 hn         1 6EH       0.308500
     56 H27         -1.8070     2.4930     0.3090 h1         1 6EH       0.056200
     57 H28         -2.1060     2.8650    -1.3800 h1         1 6EH       0.056200
     58 H29         -2.9440     0.5590    -1.7710 hc         1 6EH       0.053700
     59 H30         -2.5440     0.1170    -0.1230 hc         1 6EH       0.053700
     60 H31         -4.5750     2.2720    -0.9020 hc         1 6EH       0.050200
     61 H32         -4.1960     1.7810     0.7370 hc         1 6EH       0.050200
     62 C27         -2.8780     0.9460    -0.7480 c3         1 6EH      -0.098400
@<TRIPOS>BOND
     1     1    12 1   
     2     1    14 1   
     3     1    31 1   
     4     1    32 1   
     5     2    11 1   
     6     2    12 1   
     7     2    33 1   
     8     2    34 1   
     9     3    21 1   
    10     3    35 1   
    11     3    36 1   
    12     3    37 1   
    13     4     5 1   
    14     4    17 1   
    15     4    22 1   
    16     4    38 1   
    17     5     6 ar  
    18     5    25 ar  
    19     6    23 ar  
    20     6    39 1   
    21     7    24 ar  
    22     7    25 ar  
    23     7    40 1   
    24     8     9 ar  
    25     8    22 ar  
    26     8    41 1   
    27     9    10 ar  
    28     9    42 1   
    29    10    26 ar  
    30    10    43 1   
    31    11    13 1   
    32    11    30 1   
    33    11    44 1   
    34    12    45 1   
    35    13    14 1   
    36    14    46 1   
    37    14    47 1   
    38    15    16 2   
    39    15    17 1   
    40    15    28 1   
    41    17    18 1   
    42    17    48 1   
    43    18    19 1   
    44    18    49 1   
    45    19    20 2   
    46    19    21 1   
    47    22    27 ar  
    48    23    24 ar  
    49    23    50 1   
    50    24    51 1   
    51    25    52 1   
    52    26    27 ar  
    53    26    53 1   
    54    27    54 1   
    55    28    29 1   
    56    28    55 1   
    57    29    56 1   
    58    29    57 1   
    59    29    62 1   
    60    30    60 1   
    61    30    61 1   
    62    30    62 1   
    63    58    62 1   
    64    59    62 1   
@<TRIPOS>SUBSTRUCTURE
     1 6EH         1 TEMP              0 ****  ****    0 ROOT
