@<TRIPOS>MOLECULE
6EI
   19    19     1     0     0
SMALL
abcg2


@<TRIPOS>ATOM
      1 C6           3.1650    -6.3840   -24.9210 ca         1 6EI      -0.129300
      2 C7           3.5420    -7.1950   -22.2640 ca         1 6EI       0.194100
      3 S1           4.9940    -7.0630   -20.0980 s6         1 6EI       1.491300
      4 O2           3.6680    -7.6160   -20.9670 os         1 6EI      -0.484800
      5 O3           4.9470    -5.6090   -20.2320 o          1 6EI      -0.695200
      6 O4           4.6640    -7.5790   -18.7750 o          1 6EI      -0.695200
      7 O5           6.1480    -7.6900   -20.7390 o          1 6EI      -0.695200
      8 C8           2.4420    -5.8030   -23.8840 ca         1 6EI      -0.102000
      9 C9           4.0820    -7.3840   -24.5950 ca         1 6EI      -0.102000
     10 C10          2.6310    -6.1920   -22.5640 ca         1 6EI      -0.135500
     11 C11          4.2720    -7.7930   -23.2850 ca         1 6EI      -0.135500
     12 C12          2.9670    -5.9600   -26.3470 c3         1 6EI      -0.029800
     13 HC8          1.7200    -5.0260   -24.1050 ha         1 6EI       0.092000
     14 HC9          4.6580    -7.8570   -25.3820 ha         1 6EI       0.092000
     15 HC10         2.0580    -5.7300   -21.7710 ha         1 6EI       0.130000
     16 HC11         4.9770    -8.5820   -23.0600 ha         1 6EI       0.130000
     17 H12C         2.6300    -6.7930   -26.9680 hc         1 6EI       0.025367
     18 H12B         2.2260    -5.1660   -26.4280 hc         1 6EI       0.025367
     19 H12A         3.8960    -5.5930   -26.7860 hc         1 6EI       0.025367
@<TRIPOS>BOND
     1     1     8 ar  
     2     1     9 ar  
     3     1    12 1   
     4     2     4 1   
     5     2    10 ar  
     6     2    11 ar  
     7     3     4 1   
     8     3     5 1   
     9     3     6 1   
    10     3     7 1   
    11     8    10 ar  
    12     8    13 1   
    13     9    11 ar  
    14     9    14 1   
    15    10    15 1   
    16    11    16 1   
    17    12    17 1   
    18    12    18 1   
    19    12    19 1   
@<TRIPOS>SUBSTRUCTURE
     1 6EI         1 TEMP              0 ****  ****    0 ROOT
