@<TRIPOS>MOLECULE
6EI
   19    19     1     0     0
SMALL
No Charge or Current Charge


@<TRIPOS>ATOM
      1 C6           3.1890    -6.4040   -24.9290 ca         1 6EI      -0.129300
      2 C7           3.5900    -7.2600   -22.2730 ca         1 6EI       0.194100
      3 S1           4.9100    -6.9910   -20.0620 s6         1 6EI       1.491300
      4 O2           3.7530    -7.7050   -20.9880 os         1 6EI      -0.484800
      5 O3           4.5140    -5.5750   -20.0070 o          1 6EI      -0.695200
      6 O4           4.8120    -7.6940   -18.7730 o          1 6EI      -0.695200
      7 O5           6.1650    -7.2360   -20.7880 o          1 6EI      -0.695200
      8 C8           2.4680    -5.8080   -23.8750 ca         1 6EI      -0.102000
      9 C9           4.1000    -7.4410   -24.6480 ca         1 6EI      -0.102000
     10 C10          2.6650    -6.2390   -22.5510 ca         1 6EI      -0.135500
     11 C11          4.2950    -7.8710   -23.3240 ca         1 6EI      -0.135500
     12 C12          2.9730    -5.9400   -26.3620 c3         1 6EI      -0.029800
     13 HC8          1.7540    -5.0140   -24.0810 ha         1 6EI       0.092000
     14 HC9          4.6530    -7.9160   -25.4550 ha         1 6EI       0.092000
     15 HC10         2.1030    -5.7830   -21.7400 ha         1 6EI       0.130000
     16 HC11         4.9940    -8.6760   -23.1100 ha         1 6EI       0.130000
     17 H12C         2.1720    -6.5160   -26.8410 hc         1 6EI       0.025367
     18 H12B         2.6950    -4.8800   -26.4020 hc         1 6EI       0.025367
     19 H12A         3.8820    -6.0650   -26.9630 hc         1 6EI       0.025367
@<TRIPOS>BOND
     1     1     8 ar  
     2     1     9 ar  
     3     1    12 1   
     4     2     4 1   
     5     2    10 ar  
     6     2    11 ar  
     7     3     4 1   
     8     3     5 1   
     9     3     6 1   
    10     3     7 1   
    11     8    10 ar  
    12     8    13 1   
    13     9    11 ar  
    14     9    14 1   
    15    10    15 1   
    16    11    16 1   
    17    12    17 1   
    18    12    18 1   
    19    12    19 1   
@<TRIPOS>SUBSTRUCTURE
     1 6EI         1 TEMP              0 ****  ****    0 ROOT
