@<TRIPOS>MOLECULE
6EJ
   59    64     1     0     0
SMALL
abcg2


@<TRIPOS>ATOM
      1 C4           7.8180     0.4120     0.1040 ca         1 6EJ      -0.021000
      2 C5           7.0030    -0.7300     0.1350 ca         1 6EJ      -0.144800
      3 C6           7.3890    -2.0810     0.4070 cc         1 6EJ      -0.078200
      4 C7           6.4710    -3.0740     0.3870 cd         1 6EJ      -0.293200
      5 C8           5.0580    -2.8490     0.0900 c          1 6EJ       0.564200
      6 C17         -0.6890     1.2560    -1.0340 c6         1 6EJ      -0.092900
      7 C20          0.6240     1.1900     1.5240 c6         1 6EJ       0.173800
      8 C22         -3.8240     1.1960     1.0480 c3         1 6EJ       0.116500
      9 C24         -5.6120    -0.5680     0.8880 ca         1 6EJ      -0.143000
     10 C28         -9.0710    -1.6340    -0.9080 c6         1 6EJ       0.116600
     11 C3           7.2800     1.6500    -0.1860 ca         1 6EJ      -0.191000
     12 C33          5.0720     0.6890    -0.4270 ca         1 6EJ      -0.192300
     13 C34          5.6550    -0.5360    -0.1370 ca         1 6EJ       0.104600
     14 C25         -6.8480    -0.9500     0.4310 ca         1 6EJ       0.065100
     15 C2           5.9100     1.7720    -0.4510 ca         1 6EJ       0.236000
     16 C23         -5.1900     0.7370     0.6260 ca         1 6EJ       0.287300
     17 C30         -7.5740     0.0250    -0.2850 ca         1 6EJ       0.454300
     18 C19         -0.8200     0.7300     1.3940 c6         1 6EJ      -0.092900
     19 C16          0.7500     1.6940    -0.8100 c6         1 6EJ       0.173800
     20 C11          3.4130    -1.0370    -0.5110 c5         1 6EJ       0.100000
     21 C27         -8.7160    -2.3380     0.3770 c6         1 6EJ       0.115600
     22 C12          3.5920     0.5000    -0.6280 c5         1 6EJ      -0.007400
     23 C18         -1.5270     1.4230     0.2270 c6         1 6EJ       0.172500
     24 C14          2.7680     1.2410     0.4290 c3         1 6EJ       0.175800
     25 N32         -5.9460     1.6060    -0.0200 nb         1 6EJ      -0.285000
     26 N31         -7.1260     1.2390    -0.4740 nb         1 6EJ      -0.318000
     27 N10          4.7420    -1.5430    -0.1590 n          1 6EJ      -0.275000
     28 N15          1.3550     0.9670     0.2910 n3         1 6EJ      -0.736600
     29 N21         -2.8820     0.9610    -0.0350 n7         1 6EJ      -0.853400
     30 O9           4.2060    -3.7310     0.0570 o          1 6EJ      -0.546000
     31 O26         -7.3260    -2.1740     0.6640 os         1 6EJ      -0.317100
     32 O29         -8.7790    -0.2410    -0.8060 os         1 6EJ      -0.424300
     33 F1           5.4200     2.9850    -0.7370 f          1 6EJ      -0.171000
     34 H1           8.8780     0.3240     0.3050 ha         1 6EJ       0.123000
     35 H2           8.4250    -2.3060     0.6280 ha         1 6EJ       0.190000
     36 H3           6.7600    -4.0960     0.5910 ha         1 6EJ       0.209000
     37 H4          -1.1240     1.8340    -1.8530 hc         1 6EJ       0.051950
     38 H5          -0.6980     0.2040    -1.3390 hc         1 6EJ       0.051950
     39 H6           0.6420     2.2540     1.8200 h1         1 6EJ       0.032700
     40 H7           1.1140     0.6350     2.3260 h1         1 6EJ       0.032700
     41 H8          -3.8540     2.2680     1.2530 h1         1 6EJ       0.048700
     42 H10         -8.5240    -2.0650    -1.7510 h1         1 6EJ       0.076700
     43 H11        -10.1380    -1.7220    -1.1050 h1         1 6EJ       0.076700
     44 H12          7.9080     2.5300    -0.2140 ha         1 6EJ       0.136000
     45 H13         -0.8400    -0.3540     1.2310 hc         1 6EJ       0.051950
     46 H14         -1.3370     0.9250     2.3360 hc         1 6EJ       0.051950
     47 H15          1.3210     1.5150    -1.7230 h1         1 6EJ       0.032700
     48 H16          0.7820     2.7830    -0.6310 h1         1 6EJ       0.032700
     49 H17          2.6870    -1.2960     0.2590 h1         1 6EJ       0.076700
     50 H18          3.0830    -1.4870    -1.4470 h1         1 6EJ       0.076700
     51 H19         -9.3070    -1.9520     1.2110 h1         1 6EJ       0.076200
     52 H20         -8.8960    -3.4080     0.2870 h1         1 6EJ       0.076200
     53 H21          3.3000     0.8340    -1.6260 hc         1 6EJ       0.075700
     54 H22         -1.5930     2.4950     0.4550 h1         1 6EJ       0.060700
     55 H23          3.0920     0.8940     1.4140 h1         1 6EJ       0.042700
     56 H24          2.9920     2.3190     0.3870 h1         1 6EJ       0.042700
     57 H26         -3.5560     0.6980     1.9900 h1         1 6EJ       0.048700
     58 H25         -2.8550    -0.0320    -0.2460 hn         1 6EJ       0.409000
     59 H9          -4.9900    -1.2550     1.4470 ha         1 6EJ       0.140000
@<TRIPOS>BOND
     1     1     2 ar  
     2     1    11 ar  
     3     1    34 1   
     4     2     3 1   
     5     2    13 ar  
     6     3     4 2   
     7     3    35 1   
     8     4     5 1   
     9     4    36 1   
    10     5    27 1   
    11     5    30 2   
    12     6    19 1   
    13     6    23 1   
    14     6    37 1   
    15     6    38 1   
    16     7    18 1   
    17     7    28 1   
    18     7    39 1   
    19     7    40 1   
    20     8    16 1   
    21     8    29 1   
    22     8    41 1   
    23     8    57 1   
    24     9    14 ar  
    25     9    16 ar  
    26     9    59 1   
    27    10    21 1   
    28    10    32 1   
    29    10    42 1   
    30    10    43 1   
    31    11    15 ar  
    32    11    44 1   
    33    12    13 ar  
    34    12    15 ar  
    35    12    22 1   
    36    13    27 1   
    37    14    17 ar  
    38    14    31 1   
    39    15    33 1   
    40    16    25 ar  
    41    17    26 ar  
    42    17    32 1   
    43    18    23 1   
    44    18    45 1   
    45    18    46 1   
    46    19    28 1   
    47    19    47 1   
    48    19    48 1   
    49    20    22 1   
    50    20    27 1   
    51    20    49 1   
    52    20    50 1   
    53    21    31 1   
    54    21    51 1   
    55    21    52 1   
    56    22    24 1   
    57    22    53 1   
    58    23    29 1   
    59    23    54 1   
    60    24    28 1   
    61    24    55 1   
    62    24    56 1   
    63    25    26 ar  
    64    29    58 1   
@<TRIPOS>SUBSTRUCTURE
     1 6EJ         1 TEMP              0 ****  ****    0 ROOT
