@<TRIPOS>MOLECULE
6EJ
   59    64     1     0     0
SMALL
No Charge or Current Charge


@<TRIPOS>ATOM
      1 C4           8.0080     0.4810     0.4340 ca         1 6EJ      -0.021000
      2 C5           7.2430    -0.6780     0.1880 ca         1 6EJ      -0.144800
      3 C6           7.7740    -2.0400     0.2180 cc         1 6EJ      -0.078200
      4 C7           6.8690    -3.0670    -0.0510 cd         1 6EJ      -0.293200
      5 C8           5.4220    -2.8710    -0.3630 c          1 6EJ       0.564200
      6 C17         -0.6560     0.8620    -1.1310 c6         1 6EJ      -0.092900
      7 C20          0.5700     1.2800     1.4950 c6         1 6EJ       0.173800
      8 C22         -3.9670     1.3750     0.7870 c3         1 6EJ       0.116500
      9 C24         -5.7810    -0.4390     0.7400 ca         1 6EJ      -0.143000
     10 C28         -9.5390    -1.6130    -0.6420 c6         1 6EJ       0.116600
     11 C3           7.3840     1.7530     0.3720 ca         1 6EJ      -0.191000
     12 C33          5.2630     0.7010    -0.1690 ca         1 6EJ      -0.192300
     13 C34          5.8980    -0.5040    -0.1010 ca         1 6EJ       0.104600
     14 C25         -7.0930    -0.8160     0.4100 ca         1 6EJ       0.065100
     15 C2           6.0080     1.8670     0.0680 ca         1 6EJ       0.236000
     16 C23         -5.3800     0.8800     0.4480 ca         1 6EJ       0.287300
     17 C30         -7.9380     0.1450    -0.2140 ca         1 6EJ       0.454300
     18 C19         -0.8980     0.8120     1.3800 c6         1 6EJ      -0.092900
     19 C16          0.8060     1.3270    -0.9510 c6         1 6EJ       0.173800
     20 C11          3.6390    -1.0670    -0.6300 c5         1 6EJ       0.100000
     21 C27         -8.9580    -2.3400     0.5940 c6         1 6EJ       0.115600
     22 C12          3.7830     0.5270    -0.5240 c5         1 6EJ      -0.007400
     23 C18         -1.5300     1.3120     0.0590 c6         1 6EJ       0.172500
     24 C14          2.8220     1.1700     0.5090 c3         1 6EJ       0.175800
     25 N32         -6.2340     1.7640    -0.1340 nb         1 6EJ      -0.285000
     26 N31         -7.4960     1.4010    -0.4620 nb         1 6EJ      -0.318000
     27 N10          5.0230    -1.5290    -0.3690 n          1 6EJ      -0.275000
     28 N15          1.3850     0.8320     0.3320 n3         1 6EJ      -0.736600
     29 N21         -2.9160     0.8230    -0.1140 n7         1 6EJ      -0.853400
     30 O9           4.6540    -3.7950    -0.5920 o          1 6EJ      -0.546000
     31 O26         -7.5350    -2.0980     0.6860 os         1 6EJ      -0.317100
     32 O29         -9.2250    -0.2020    -0.5840 os         1 6EJ      -0.424300
     33 F1           5.4260     3.0840    -0.0010 f          1 6EJ      -0.171000
     34 H1           9.0680     0.4030     0.6660 ha         1 6EJ       0.123000
     35 H2           8.8180    -2.2540     0.4390 ha         1 6EJ       0.190000
     36 H3           7.1800    -4.1050    -0.0480 ha         1 6EJ       0.209000
     37 H4          -1.0580     1.2690    -2.0680 hc         1 6EJ       0.051950
     38 H5          -0.6800    -0.2330    -1.2250 hc         1 6EJ       0.051950
     39 H6           0.5920     2.3770     1.5740 h1         1 6EJ       0.032700
     40 H7           0.9910     0.8800     2.4290 h1         1 6EJ       0.032700
     41 H8          -3.9600     2.4730     0.7400 h1         1 6EJ       0.048700
     42 H10         -9.1040    -2.0420    -1.5560 h1         1 6EJ       0.076700
     43 H11        -10.6300    -1.7440    -0.6890 h1         1 6EJ       0.076700
     44 H12          7.9670     2.6520     0.5560 ha         1 6EJ       0.136000
     45 H13         -0.9370    -0.2850     1.4280 hc         1 6EJ       0.051950
     46 H14         -1.4620     1.1880     2.2430 hc         1 6EJ       0.051950
     47 H15          1.3840     0.9570    -1.8090 h1         1 6EJ       0.032700
     48 H16          0.8420     2.4270    -0.9860 h1         1 6EJ       0.032700
     49 H17          2.9440    -1.4680     0.1190 h1         1 6EJ       0.076700
     50 H18          3.2920    -1.3780    -1.6240 h1         1 6EJ       0.076700
     51 H19         -9.4450    -1.9620     1.5040 h1         1 6EJ       0.076200
     52 H20         -9.1400    -3.4220     0.5310 h1         1 6EJ       0.076200
     53 H21          3.5810     0.9910    -1.4950 hc         1 6EJ       0.075700
     54 H22         -1.5430     2.4140     0.0720 h1         1 6EJ       0.060700
     55 H23          3.1500     0.8330     1.5020 h1         1 6EJ       0.042700
     56 H24          2.9570     2.2600     0.4830 h1         1 6EJ       0.042700
     57 H26         -3.7590     1.1020     1.8300 h1         1 6EJ       0.048700
     58 H25         -2.9140    -0.2020    -0.0440 hn         1 6EJ       0.409000
     59 H9          -5.0990    -1.1400     1.2120 ha         1 6EJ       0.140000
@<TRIPOS>BOND
     1     1     2 ar  
     2     1    11 ar  
     3     1    34 1   
     4     2     3 1   
     5     2    13 ar  
     6     3     4 2   
     7     3    35 1   
     8     4     5 1   
     9     4    36 1   
    10     5    27 1   
    11     5    30 2   
    12     6    19 1   
    13     6    23 1   
    14     6    37 1   
    15     6    38 1   
    16     7    18 1   
    17     7    28 1   
    18     7    39 1   
    19     7    40 1   
    20     8    16 1   
    21     8    29 1   
    22     8    41 1   
    23     8    57 1   
    24     9    14 ar  
    25     9    16 ar  
    26     9    59 1   
    27    10    21 1   
    28    10    32 1   
    29    10    42 1   
    30    10    43 1   
    31    11    15 ar  
    32    11    44 1   
    33    12    13 ar  
    34    12    15 ar  
    35    12    22 1   
    36    13    27 1   
    37    14    17 ar  
    38    14    31 1   
    39    15    33 1   
    40    16    25 ar  
    41    17    26 ar  
    42    17    32 1   
    43    18    23 1   
    44    18    45 1   
    45    18    46 1   
    46    19    28 1   
    47    19    47 1   
    48    19    48 1   
    49    20    22 1   
    50    20    27 1   
    51    20    49 1   
    52    20    50 1   
    53    21    31 1   
    54    21    51 1   
    55    21    52 1   
    56    22    24 1   
    57    22    53 1   
    58    23    29 1   
    59    23    54 1   
    60    24    28 1   
    61    24    55 1   
    62    24    56 1   
    63    25    26 ar  
    64    29    58 1   
@<TRIPOS>SUBSTRUCTURE
     1 6EJ         1 TEMP              0 ****  ****    0 ROOT
