@<TRIPOS>MOLECULE
6EK
   79    81     1     0     0
SMALL
No Charge or Current Charge


@<TRIPOS>ATOM
      1 C10         -2.4200     0.5350    -1.3730 c          1 6EK       0.577100
      2 C15         -2.9110    -2.3740     0.4910 cc         1 6EK       0.210900
      3 C17         -6.1910     0.8510    -1.3370 c          1 6EK       0.728000
      4 C20          1.1800    -3.8960     1.1070 c3         1 6EK       0.145600
      5 C21          0.5790    -6.1970     0.8060 c          1 6EK       0.639100
      6 C22         -1.0790     2.7030    -1.5940 c3         1 6EK      -0.011100
      7 C24          1.6860     4.7850    -0.4110 cc         1 6EK       0.580400
      8 C01          6.3740     3.8630     0.9760 c6         1 6EK      -0.090400
      9 C02          7.7050     3.4770     0.2900 c6         1 6EK      -0.114400
     10 C03          8.1240     2.0430     0.6800 c6         1 6EK       0.149800
     11 N01          7.0680     1.0700     0.3180 n7         1 6EK      -0.840400
     12 C04          5.7180     1.3650     0.9510 c6         1 6EK       0.062500
     13 C05          5.2530     2.8440     0.6470 c6         1 6EK       0.162300
     14 O01          4.0760     3.2300     1.3680 oh         1 6EK      -0.680000
     15 N02          3.3080     0.6480     0.7270 ns         1 6EK      -0.464900
     16 C07          2.1240    -0.1180     0.2820 c3         1 6EK       0.036700
     17 N03         -0.0730     0.6270    -0.6030 ns         1 6EK      -0.499900
     18 C09         -1.3130     1.4240    -0.7460 c3         1 6EK       0.030700
     19 N04         -3.7030     0.7940    -0.9280 ns         1 6EK      -0.460900
     20 C11         -4.9090    -0.0230    -1.2580 c3         1 6EK      -0.088300
     21 C12         -5.1290    -1.2160    -0.2900 c3         1 6EK       0.240600
     22 O09         -5.2990    -0.7360     1.0470 oh         1 6EK      -0.634000
     23 N05         -3.8550    -3.2100    -1.2960 na         1 6EK      -0.265500
     24 C14         -2.6970    -3.8890    -1.0020 cd         1 6EK       0.490500
     25 N06         -2.1060    -3.4000     0.0770 nc         1 6EK      -0.720000
     26 C16         -3.9990    -2.2200    -0.3330 cd         1 6EK      -0.172300
     27 Cl          -2.0730    -5.2040    -1.9400 cl         1 6EK      -0.128000
     28 O05         -2.1800    -0.3450    -2.1910 o          1 6EK      -0.650100
     29 O06          4.9260    -0.8830     0.3020 o          1 6EK      -0.659100
     30 C18          1.8950    -1.4220     1.1050 c3         1 6EK      -0.127400
     31 C19          1.4910    -2.6440     0.2430 c3         1 6EK       0.179300
     32 N07          0.3540    -7.1170    -0.1410 nt         1 6EK      -0.599000
     33 O08          0.5450    -6.4370     2.0000 o          1 6EK      -0.549000
     34 O            0.3680    -2.2950    -0.5820 oh         1 6EK      -0.676000
     35 C23         -0.1360     3.6940    -0.9550 cc         1 6EK      -0.185300
     36 N08          1.2100     3.8250    -1.2410 na         1 6EK      -0.301500
     37 C           -0.3790     4.6300     0.0280 cd         1 6EK       0.245900
     38 N09          0.7800     5.3110     0.3550 nd         1 6EK      -0.722000
     39 H1          -2.6440    -1.7950     1.3660 h4         1 6EK       0.036100
     40 H2           2.0520    -4.1240     1.7340 h1         1 6EK       0.053700
     41 H3           0.3300    -3.6840     1.7690 h1         1 6EK       0.053700
     42 H4          -0.7080     2.4140    -2.5850 hc         1 6EK       0.069700
     43 H5          -2.0450     3.1950    -1.7650 hc         1 6EK       0.069700
     44 H8           7.6020     3.5530    -0.8010 hc         1 6EK       0.041200
     45 H9           8.4930     4.1840     0.5810 hc         1 6EK       0.041200
     46 H10          9.0620     1.7790     0.1700 h1         1 6EK       0.051200
     47 H11          8.3120     1.9970     1.7640 h1         1 6EK       0.051200
     48 H12          6.9630     1.0610    -0.7050 hn         1 6EK       0.418000
     49 H14          5.8390     1.2980     2.0420 h1         1 6EK       0.073700
     50 H15          5.0490     2.9060    -0.4320 h1         1 6EK       0.030700
     51 H16          3.6710     3.9810     0.8510 ho         1 6EK       0.493000
     52 H17          3.1610     1.5980     1.0630 hn         1 6EK       0.326500
     53 H18          2.2770    -0.3730    -0.7750 h1         1 6EK       0.092700
     54 H19          0.0430    -0.1900    -1.1980 hn         1 6EK       0.334500
     55 H20         -1.6600     1.7180     0.2540 h1         1 6EK       0.094700
     56 H21         -3.8290     1.6040    -0.3280 hn         1 6EK       0.346500
     57 H22         -4.7690    -0.4350    -2.2650 h1         1 6EK       0.062700
     58 H23         -6.0440    -1.7390    -0.6090 h1         1 6EK       0.103700
     59 H24         -4.4870    -0.2340     1.2640 ho         1 6EK       0.443000
     60 H25         -4.4590    -3.4040    -2.0830 hn         1 6EK       0.369000
     61 H28          2.8060    -1.6860     1.6530 hc         1 6EK       0.066700
     62 H29          1.1310    -1.2420     1.8710 hc         1 6EK       0.066700
     63 H30          2.3490    -2.8920    -0.3980 h1         1 6EK       0.069700
     64 H31          0.4040    -6.8460    -1.1110 hn         1 6EK       0.322500
     65 H32          0.1240    -8.0610     0.1250 hn         1 6EK       0.322500
     66 H33         -0.4160    -2.8240    -0.2660 ho         1 6EK       0.492000
     67 H34          1.7550     3.3040    -1.9120 hn         1 6EK       0.380000
     68 H35         -1.3210     4.8400     0.5220 h4         1 6EK       0.036100
     69 O02         -6.1890     1.9500    -0.7960 o          1 6EK      -0.705000
     70 C08          0.8840     0.8160     0.3680 c          1 6EK       0.585100
     71 C06          4.6280     0.2640     0.6230 c          1 6EK       0.630100
     72 H6           6.5240     3.9100     2.0640 hc         1 6EK       0.051200
     73 O03         -7.1110     0.4470    -2.0340 o          1 6EK      -0.705000
     74 N            2.9650     5.1620    -0.3760 nv         1 6EK      -1.005900
     75 O04          0.7650     1.6700     1.2370 o          1 6EK      -0.587100
     76 O07          0.8850    -5.0040     0.2320 os         1 6EK      -0.447100
     77 H7           6.0730     4.8700     0.6580 hc         1 6EK       0.051200
     78 H37          3.4690     5.0620    -1.2520 hn         1 6EK       0.439000
     79 H38          3.1120     6.0570     0.0800 hn         1 6EK       0.439000
@<TRIPOS>BOND
     1     1    18 1   
     2     1    19 1   
     3     1    28 2   
     4     2    25 1   
     5     2    26 2   
     6     2    39 1   
     7     3    20 1   
     8     3    69 1   
     9     3    73 1   
    10     4    31 1   
    11     4    40 1   
    12     4    41 1   
    13     4    76 1   
    14     5    32 1   
    15     5    33 2   
    16     5    76 1   
    17     6    18 1   
    18     6    35 1   
    19     6    42 1   
    20     6    43 1   
    21     7    36 1   
    22     7    38 2   
    23     7    74 1   
    24     8     9 1   
    25     8    13 1   
    26     8    72 1   
    27     8    77 1   
    28     9    10 1   
    29     9    44 1   
    30     9    45 1   
    31    10    11 1   
    32    10    46 1   
    33    10    47 1   
    34    11    12 1   
    35    11    48 1   
    36    12    13 1   
    37    12    49 1   
    38    12    71 1   
    39    13    14 1   
    40    13    50 1   
    41    14    51 1   
    42    15    16 1   
    43    15    52 1   
    44    15    71 1   
    45    16    30 1   
    46    16    53 1   
    47    16    70 1   
    48    17    18 1   
    49    17    54 1   
    50    17    70 1   
    51    18    55 1   
    52    19    20 1   
    53    19    56 1   
    54    20    21 1   
    55    20    57 1   
    56    21    22 1   
    57    21    26 1   
    58    21    58 1   
    59    22    59 1   
    60    23    24 1   
    61    23    26 1   
    62    23    60 1   
    63    24    25 2   
    64    24    27 1   
    65    29    71 2   
    66    30    31 1   
    67    30    61 1   
    68    30    62 1   
    69    31    34 1   
    70    31    63 1   
    71    32    64 1   
    72    32    65 1   
    73    34    66 1   
    74    35    36 1   
    75    35    37 2   
    76    36    67 1   
    77    37    38 1   
    78    37    68 1   
    79    70    75 2   
    80    74    78 1   
    81    74    79 1   
@<TRIPOS>SUBSTRUCTURE
     1 6EK         1 TEMP              0 ****  ****    0 ROOT
