@<TRIPOS>MOLECULE
6EK
   79    81     1     0     0
SMALL
bcc


@<TRIPOS>ATOM
      1 C10         -2.5980     0.8940    -1.3500 c          1 6EK       0.644100
      2 C15         -2.3880    -2.3550    -0.1630 cc         1 6EK       0.276200
      3 C17         -6.1680     0.7190    -0.4620 c          1 6EK       0.938600
      4 C20          1.2330    -3.7600     1.6450 c3         1 6EK       0.122400
      5 C21          1.6180    -6.0570     2.0140 c          1 6EK       0.755100
      6 C22         -1.3320     3.0170    -1.7270 c3         1 6EK      -0.011100
      7 C24          1.5550     4.9620    -0.7030 cc         1 6EK       0.580400
      8 C01          6.6660     3.1270     1.1840 c6         1 6EK      -0.090400
      9 C02          7.6950     2.3440     0.3730 c6         1 6EK      -0.114400
     10 C03          7.3000     0.8740     0.2640 c6         1 6EK       0.149800
     11 N01          5.9430     0.6660    -0.2230 n7         1 6EK      -0.785200
     12 C04          4.9760     1.4060     0.5760 c6         1 6EK       0.062500
     13 C05          5.2630     2.9100     0.6320 c6         1 6EK       0.139100
     14 O01          4.3040     3.5610     1.4280 oh         1 6EK      -0.617800
     15 N02          2.8450     0.2630     0.7050 ns         1 6EK      -0.531900
     16 C07          1.5490    -0.1700     0.2490 c3         1 6EK       0.036700
     17 N03         -0.3050     1.0080    -0.7130 ns         1 6EK      -0.566900
     18 C09         -1.5060     1.8050    -0.7970 c3         1 6EK       0.030700
     19 N04         -3.7170     0.8190    -0.6200 ns         1 6EK      -0.527900
     20 C11         -4.8740     0.0410    -0.9870 c3         1 6EK      -0.088300
     21 C12         -4.7890    -1.3850    -0.4000 c3         1 6EK       0.217400
     22 O09         -4.8590    -1.3590     1.0020 oh         1 6EK      -0.571800
     23 N05         -3.3180    -2.5220    -2.1140 na         1 6EK      -0.265900
     24 C14         -2.0590    -2.9820    -2.1600 cd         1 6EK       0.490500
     25 N06         -1.4620    -2.9130    -1.0080 nc         1 6EK      -0.720000
     26 C16         -3.5450    -2.0920    -0.8350 cd         1 6EK      -0.186900
     27 CL          -1.3740    -3.6000    -3.5880 cl         1 6EK      -0.128000
     28 O05         -2.4130     0.2930    -2.3990 o          1 6EK      -0.650100
     29 O06          3.2130     1.6340    -1.0390 o          1 6EK      -0.659100
     30 C18          1.0620    -1.3490     1.0930 c3         1 6EK      -0.127400
     31 C19          1.6800    -2.6830     0.6700 c3         1 6EK       0.156100
     32 N07          2.3160    -7.1180     1.5750 nt         1 6EK      -0.666000
     33 O08          0.8620    -6.0610     2.9640 o          1 6EK      -0.598000
     34 O            1.3760    -3.0080    -0.6590 oh         1 6EK      -0.613800
     35 C23         -0.3590     4.0190    -1.2260 cc         1 6EK      -0.199900
     36 N08          1.0090     3.8450    -1.2240 na         1 6EK      -0.301900
     37 C           -0.5490     5.2580    -0.6960 cd         1 6EK       0.311200
     38 N09          0.6520     5.8450    -0.3750 nd         1 6EK      -0.722000
     39 H1          -2.1670    -2.1810     0.8780 h4         1 6EK       0.036100
     40 H2           1.5030    -3.4750     2.6650 h1         1 6EK       0.053700
     41 H3           0.1450    -3.8820     1.6080 h1         1 6EK       0.053700
     42 H4          -1.0500     2.6600    -2.7220 hc         1 6EK       0.069700
     43 H5          -2.3000     3.5120    -1.8340 hc         1 6EK       0.069700
     44 H8           7.7760     2.7710    -0.6320 hc         1 6EK       0.041200
     45 H9           8.6850     2.4300     0.8270 hc         1 6EK       0.041200
     46 H10          7.9860     0.3410    -0.3970 h1         1 6EK       0.051200
     47 H11          7.3820     0.4000     1.2480 h1         1 6EK       0.051200
     48 H12          5.8850     0.9790    -1.1860 hn         1 6EK       0.362800
     49 H14          5.0360     1.0170     1.6010 h1         1 6EK       0.073700
     50 H15          5.2410     3.2880    -0.4000 h1         1 6EK       0.030700
     51 H16          3.7120     4.0630     0.8330 ho         1 6EK       0.454000
     52 H17          3.1840    -0.0750     1.5920 hn         1 6EK       0.326500
     53 H18          1.6320    -0.4950    -0.7910 h1         1 6EK       0.092700
     54 H19         -0.1270     0.3890    -1.4910 hn         1 6EK       0.334500
     55 H20         -1.7550     2.1550     0.2050 h1         1 6EK       0.094700
     56 H21         -3.8610     1.4800     0.1310 hn         1 6EK       0.346500
     57 H22         -4.9350    -0.0320    -2.0760 h1         1 6EK       0.062700
     58 H23         -5.6690    -1.9300    -0.7510 h1         1 6EK       0.103700
     59 H24         -4.2010    -0.7370     1.3330 ho         1 6EK       0.404000
     60 H25         -3.9510    -2.4480    -2.8960 hn         1 6EK       0.318700
     61 H28          1.2650    -1.1490     2.1490 hc         1 6EK       0.066700
     62 H29         -0.0250    -1.4230     1.0080 hc         1 6EK       0.066700
     63 H30          2.7720    -2.6020     0.7300 h1         1 6EK       0.069700
     64 H31          2.8200    -7.0910     0.7060 hn         1 6EK       0.322500
     65 H32          2.1220    -8.0220     1.9690 hn         1 6EK       0.322500
     66 H33          0.4020    -3.0260    -0.7660 ho         1 6EK       0.453000
     67 H34          1.5170     3.0050    -1.4660 hn         1 6EK       0.329700
     68 H35         -1.4890     5.7660    -0.5400 h4         1 6EK       0.036100
     69 O02         -6.0260     1.7400     0.2350 o          1 6EK      -0.810300
     70 C08          0.5160     0.9510     0.3500 c          1 6EK       0.652100
     71 C06          3.5930     1.1300     0.0140 c          1 6EK       0.697100
     72 H6           6.6940     2.8000     2.2310 hc         1 6EK       0.051200
     73 O03         -7.2250     0.1570    -0.7900 o          1 6EK      -0.810300
     74 N            2.9240     5.0930    -0.5090 nv         1 6EK      -0.895500
     75 O04          0.4280     1.6620     1.3330 o          1 6EK      -0.587100
     76 O07          1.8830    -4.9720     1.2790 os         1 6EK      -0.423900
     77 H7           6.9030     4.1940     1.1790 hc         1 6EK       0.051200
     78 H37          3.4640     4.8190    -1.3200 hn         1 6EK       0.383800
     79 H38          3.1610     6.0460    -0.2670 hn         1 6EK       0.383800
@<TRIPOS>BOND
     1     1    18 1   
     2     1    19 1   
     3     1    28 2   
     4     2    25 1   
     5     2    26 2   
     6     2    39 1   
     7     3    20 1   
     8     3    69 1   
     9     3    73 1   
    10     4    31 1   
    11     4    40 1   
    12     4    41 1   
    13     4    76 1   
    14     5    32 1   
    15     5    33 2   
    16     5    76 1   
    17     6    18 1   
    18     6    35 1   
    19     6    42 1   
    20     6    43 1   
    21     7    36 1   
    22     7    38 2   
    23     7    74 1   
    24     8     9 1   
    25     8    13 1   
    26     8    72 1   
    27     8    77 1   
    28     9    10 1   
    29     9    44 1   
    30     9    45 1   
    31    10    11 1   
    32    10    46 1   
    33    10    47 1   
    34    11    12 1   
    35    11    48 1   
    36    12    13 1   
    37    12    49 1   
    38    12    71 1   
    39    13    14 1   
    40    13    50 1   
    41    14    51 1   
    42    15    16 1   
    43    15    52 1   
    44    15    71 1   
    45    16    30 1   
    46    16    53 1   
    47    16    70 1   
    48    17    18 1   
    49    17    54 1   
    50    17    70 1   
    51    18    55 1   
    52    19    20 1   
    53    19    56 1   
    54    20    21 1   
    55    20    57 1   
    56    21    22 1   
    57    21    26 1   
    58    21    58 1   
    59    22    59 1   
    60    23    24 1   
    61    23    26 1   
    62    23    60 1   
    63    24    25 2   
    64    24    27 1   
    65    29    71 2   
    66    30    31 1   
    67    30    61 1   
    68    30    62 1   
    69    31    34 1   
    70    31    63 1   
    71    32    64 1   
    72    32    65 1   
    73    34    66 1   
    74    35    36 1   
    75    35    37 2   
    76    36    67 1   
    77    37    38 1   
    78    37    68 1   
    79    70    75 2   
    80    74    78 1   
    81    74    79 1   
@<TRIPOS>SUBSTRUCTURE
     1 6EK         1 TEMP              0 ****  ****    0 ROOT
