@<TRIPOS>MOLECULE
6EL
   29    31     1     0     0
SMALL
abcg2


@<TRIPOS>ATOM
      1 O           -1.2500     0.3610     2.0290 o          1 6EL      -0.502000
      2 C           -1.8550     0.1020     1.0170 c          1 6EL       0.571000
      3 NE2         -3.1920     0.3830     0.8910 ns         1 6EL      -0.477500
      4 CD          -4.0260     0.1100    -0.1780 c          1 6EL       0.580000
      5 OE1         -5.2000     0.3930    -0.1170 o          1 6EL      -0.510000
      6 CG          -3.3860    -0.5630    -1.3590 c6         1 6EL      -0.163400
      7 CB          -1.9060    -0.2470    -1.4840 c6         1 6EL      -0.085400
      8 CA          -1.2120    -0.5910    -0.1740 c6         1 6EL       0.038700
      9 N            0.2010    -0.3320    -0.1750 n          1 6EL      -0.387400
     10 CAN          0.7520     0.9430    -0.2210 c          1 6EL       0.596100
     11 OAC          0.1210     1.9660    -0.2970 o          1 6EL      -0.482000
     12 CAO          1.1750    -1.3180    -0.0640 c          1 6EL       0.596100
     13 OAD          0.9620    -2.5000     0.0150 o          1 6EL      -0.482000
     14 CAQ          2.4720    -0.6050    -0.0630 ca         1 6EL      -0.141600
     15 CAP          2.2170     0.7540    -0.1550 ca         1 6EL      -0.141600
     16 CAH          3.7560    -1.0990     0.0160 ca         1 6EL      -0.043000
     17 CAF          4.7960    -0.1700    -0.0000 ca         1 6EL      -0.096500
     18 CAE          4.5400     1.1950    -0.0920 ca         1 6EL      -0.096500
     19 CAG          3.2360     1.6820    -0.1710 ca         1 6EL      -0.043000
     20 H1          -3.6300     0.8140     1.6980 hn         1 6EL       0.333500
     21 H2          -3.5350    -1.6410    -1.2360 hc         1 6EL       0.082700
     22 H3          -3.9310    -0.2700    -2.2550 hc         1 6EL       0.082700
     23 H4          -1.4660    -0.8350    -2.2900 hc         1 6EL       0.072700
     24 H5          -1.7660     0.8060    -1.7320 hc         1 6EL       0.072700
     25 H6          -1.3330    -1.6660     0.0060 h1         1 6EL       0.101700
     26 H7           3.9540    -2.1600     0.0890 ha         1 6EL       0.139500
     27 H8           5.8190    -0.5140     0.0610 ha         1 6EL       0.124000
     28 H9           5.3690     1.8900    -0.1020 ha         1 6EL       0.124000
     29 H10          3.0400     2.7430    -0.2400 ha         1 6EL       0.139500
@<TRIPOS>BOND
     1     1     2 2   
     2     2     3 1   
     3     2     8 1   
     4     3     4 1   
     5     3    20 1   
     6     4     5 2   
     7     4     6 1   
     8     6     7 1   
     9     6    21 1   
    10     6    22 1   
    11     7     8 1   
    12     7    23 1   
    13     7    24 1   
    14     8     9 1   
    15     8    25 1   
    16     9    10 1   
    17     9    12 1   
    18    10    11 2   
    19    10    15 1   
    20    12    13 2   
    21    12    14 1   
    22    14    15 ar  
    23    14    16 ar  
    24    15    19 ar  
    25    16    17 ar  
    26    16    26 1   
    27    17    18 ar  
    28    17    27 1   
    29    18    19 ar  
    30    18    28 1   
    31    19    29 1   
@<TRIPOS>SUBSTRUCTURE
     1 6EL         1 TEMP              0 ****  ****    0 ROOT
