@<TRIPOS>MOLECULE
6EL
   29    31     1     0     0
SMALL
No Charge or Current Charge


@<TRIPOS>ATOM
      1 O           -1.5480     0.4390     2.1730 o          1 6EL      -0.502000
      2 C           -2.0300     0.1830     1.0800 c          1 6EL       0.571000
      3 NE2         -3.3250     0.5270     0.8020 ns         1 6EL      -0.477500
      4 CD          -4.0830     0.2110    -0.2870 c          1 6EL       0.580000
      5 OE1         -5.2200     0.6350    -0.4050 o          1 6EL      -0.510000
      6 CG          -3.4160    -0.6470    -1.3680 c6         1 6EL      -0.163400
      7 CB          -1.8790    -0.4760    -1.4290 c6         1 6EL      -0.085400
      8 CA          -1.2390    -0.5840    -0.0210 c6         1 6EL       0.038700
      9 N            0.2250    -0.3030    -0.0760 n          1 6EL      -0.387400
     10 CAN          0.7810     0.9800     0.0060 c          1 6EL       0.596100
     11 OAC          0.1800     2.0420     0.0740 o          1 6EL      -0.482000
     12 CAO          1.1980    -1.3020    -0.1660 c          1 6EL       0.596100
     13 OAD          1.0100    -2.5070    -0.2410 o          1 6EL      -0.482000
     14 CAQ          2.5060    -0.5860    -0.1490 ca         1 6EL      -0.141600
     15 CAP          2.2570     0.7750    -0.0440 ca         1 6EL      -0.141600
     16 CAH          3.8130    -1.0900    -0.2170 ca         1 6EL      -0.043000
     17 CAF          4.8780    -0.1650    -0.1780 ca         1 6EL      -0.096500
     18 CAE          4.6240     1.2250    -0.0710 ca         1 6EL      -0.096500
     19 CAG          3.3000     1.7110    -0.0030 ca         1 6EL      -0.043000
     20 H1          -3.7950     1.0630     1.5170 hn         1 6EL       0.333500
     21 H2          -3.6100    -1.6880    -1.0790 hc         1 6EL       0.082700
     22 H3          -3.9110    -0.4860    -2.3350 hc         1 6EL       0.082700
     23 H4          -1.4380    -1.2220    -2.1060 hc         1 6EL       0.072700
     24 H5          -1.6460     0.5090    -1.8590 hc         1 6EL       0.072700
     25 H6          -1.3630    -1.6310     0.2910 h1         1 6EL       0.101700
     26 H7           4.0000    -2.1600    -0.2980 ha         1 6EL       0.139500
     27 H8           5.9040    -0.5230    -0.2290 ha         1 6EL       0.124000
     28 H9           5.4560     1.9250    -0.0420 ha         1 6EL       0.124000
     29 H10          3.0960     2.7770     0.0780 ha         1 6EL       0.139500
@<TRIPOS>BOND
     1     1     2 2   
     2     2     3 1   
     3     2     8 1   
     4     3     4 1   
     5     3    20 1   
     6     4     5 2   
     7     4     6 1   
     8     6     7 1   
     9     6    21 1   
    10     6    22 1   
    11     7     8 1   
    12     7    23 1   
    13     7    24 1   
    14     8     9 1   
    15     8    25 1   
    16     9    10 1   
    17     9    12 1   
    18    10    11 2   
    19    10    15 1   
    20    12    13 2   
    21    12    14 1   
    22    14    15 ar  
    23    14    16 ar  
    24    15    19 ar  
    25    16    17 ar  
    26    16    26 1   
    27    17    18 ar  
    28    17    27 1   
    29    18    19 ar  
    30    18    28 1   
    31    19    29 1   
@<TRIPOS>SUBSTRUCTURE
     1 6EL         1 TEMP              0 ****  ****    0 ROOT
