@<TRIPOS>MOLECULE
6EN
   31    33     1     0     0
SMALL
bcc


@<TRIPOS>ATOM
      1 C15         -3.0090    -0.4100    -0.2180 ca         1 6EN       0.443800
      2 C17         -4.5290     1.1160     0.3870 ca         1 6EN       0.417200
      3 C20         -1.9160     0.4380     0.0680 ca         1 6EN      -0.227100
      4 O01          4.0750     2.4300    -0.2140 o          1 6EN      -0.816300
      5 O03          1.8560     2.4780    -0.3220 o          1 6EN      -0.816300
      6 C04          2.9220     0.3990     0.1220 ca         1 6EN      -0.190600
      7 C05          4.1060    -0.2680     0.3970 ca         1 6EN      -0.176300
      8 C06          4.1040    -1.6220     0.6900 ca         1 6EN       0.301200
      9 N07          2.9830    -2.3340     0.7230 nb         1 6EN      -0.668000
     10 C08          1.8400    -1.7280     0.4540 ca         1 6EN       0.282200
     11 C09          1.7270    -0.3600     0.1410 ca         1 6EN       0.106300
     12 C11         -0.7270    -0.2990    -0.2340 cc         1 6EN       0.166800
     13 C12         -1.1450    -1.5260    -0.6800 cd         1 6EN      -0.200100
     14 N13         -2.5220    -1.5930    -0.6690 na         1 6EN      -0.165100
     15 C14         -3.3020    -2.7680    -0.9740 c3         1 6EN       0.048600
     16 N16         -4.2900    -0.1050    -0.0670 nb         1 6EN      -0.710000
     17 C18         -3.5340     2.0500     0.7040 ca         1 6EN      -0.310300
     18 C19         -2.2010     1.7130     0.5460 ca         1 6EN      -0.016000
     19 H1          -5.5710     1.3850     0.5120 h4         1 6EN       0.000100
     20 H3           5.0380     0.2800     0.3870 ha         1 6EN       0.150000
     21 H4           5.0280    -2.1450     0.9100 h4         1 6EN      -0.006900
     22 H5           0.9530    -2.3460     0.5080 h4         1 6EN      -0.002900
     23 H6           0.6590     1.2600    -0.2490 hn         1 6EN       0.516800
     24 H7          -0.5750    -2.3710    -1.0320 h4         1 6EN       0.169000
     25 H8          -3.4170    -3.4110    -0.1010 h1         1 6EN       0.042700
     26 H9          -4.2870    -2.4690    -1.3210 h1         1 6EN       0.042700
     27 H10         -2.8150    -3.3340    -1.7650 h1         1 6EN       0.042700
     28 H11         -3.8210     3.0240     1.0750 ha         1 6EN       0.130000
     29 H12         -1.4150     2.4170     0.7900 ha         1 6EN       0.159000
     30 N10          0.5370     0.2490    -0.1170 nu         1 6EN      -0.647400
     31 C02          2.9600     1.8940    -0.1640 c          1 6EN       0.935200
@<TRIPOS>BOND
     1     1     3 ar  
     2     1    14 1   
     3     1    16 ar  
     4     2    16 ar  
     5     2    17 ar  
     6     2    19 1   
     7     3    12 1   
     8     3    18 ar  
     9     4    31 1   
    10     5    31 1   
    11     6     7 ar  
    12     6    11 ar  
    13     6    31 1   
    14     7     8 ar  
    15     7    20 1   
    16     8     9 ar  
    17     8    21 1   
    18     9    10 ar  
    19    10    11 ar  
    20    10    22 1   
    21    11    30 1   
    22    12    13 2   
    23    12    30 1   
    24    13    14 1   
    25    13    24 1   
    26    14    15 1   
    27    15    25 1   
    28    15    26 1   
    29    15    27 1   
    30    17    18 ar  
    31    17    28 1   
    32    18    29 1   
    33    23    30 1   
@<TRIPOS>SUBSTRUCTURE
     1 6EN         1 TEMP              0 ****  ****    0 ROOT
