@<TRIPOS>MOLECULE
6EN
   31    33     1     0     0
SMALL
No Charge or Current Charge


@<TRIPOS>ATOM
      1 C15         -3.0190    -0.4750    -0.1760 ca         1 6EN       0.378500
      2 C17         -4.4050     1.2040     0.6020 ca         1 6EN       0.351900
      3 C20         -1.9100     0.3220     0.0050 ca         1 6EN      -0.161800
      4 O01          3.8520     2.5510    -0.3340 o          1 6EN      -0.711000
      5 O03          1.7060     2.4850    -0.2810 o          1 6EN      -0.711000
      6 C04          2.8700     0.4680     0.1400 ca         1 6EN      -0.190600
      7 C05          4.0870    -0.0980     0.6000 ca         1 6EN      -0.093000
      8 C06          4.1620    -1.4680     0.9090 ca         1 6EN       0.235900
      9 N07          3.1110    -2.3070     0.7930 nb         1 6EN      -0.668000
     10 C08          1.9420    -1.7760     0.3510 ca         1 6EN       0.216900
     11 C09          1.7600    -0.4050     0.0060 ca         1 6EN       0.310000
     12 C11         -0.7480    -0.4170    -0.3870 cc         1 6EN       0.166800
     13 C12         -1.1900    -1.6440    -0.8380 cd         1 6EN      -0.250100
     14 N13         -2.5930    -1.6990    -0.6840 na         1 6EN      -0.194400
     15 C14         -3.5090    -2.7930    -1.0390 c3         1 6EN       0.077900
     16 N16         -4.2710    -0.0540     0.1140 nb         1 6EN      -0.710000
     17 C18         -3.3130     2.0690     0.8140 ca         1 6EN      -0.227000
     18 C19         -2.0150     1.6250     0.5100 ca         1 6EN       0.002000
     19 H1          -5.4200     1.5270     0.8300 h4         1 6EN       0.000100
     20 H3           4.9760     0.5140     0.7260 ha         1 6EN       0.132000
     21 H4           5.0930    -1.9060     1.2650 h4         1 6EN      -0.006900
     22 H5           1.1180    -2.4840     0.2760 h4         1 6EN      -0.002900
     23 H6           0.5600     1.1160    -0.4980 hn         1 6EN       0.572000
     24 H7          -0.6220    -2.4610    -1.2710 h4         1 6EN       0.219000
     25 H8          -4.0850    -3.0930    -0.1550 h1         1 6EN       0.042700
     26 H9          -4.1970    -2.4570    -1.8250 h1         1 6EN       0.042700
     27 H10         -2.9350    -3.6540    -1.4050 h1         1 6EN       0.042700
     28 H11         -3.4780     3.0670     1.2090 ha         1 6EN       0.112000
     29 H12         -1.1430     2.2580     0.6630 ha         1 6EN       0.141000
     30 N10          0.5250     0.0850    -0.4470 nu         1 6EN      -0.841000
     31 C02          2.8010     1.9450    -0.1870 c          1 6EN       0.724600
@<TRIPOS>BOND
     1     1     3 ar  
     2     1    14 1   
     3     1    16 ar  
     4     2    16 ar  
     5     2    17 ar  
     6     2    19 1   
     7     3    12 1   
     8     3    18 ar  
     9     4    31 1   
    10     5    31 1   
    11     6     7 ar  
    12     6    11 ar  
    13     6    31 1   
    14     7     8 ar  
    15     7    20 1   
    16     8     9 ar  
    17     8    21 1   
    18     9    10 ar  
    19    10    11 ar  
    20    10    22 1   
    21    11    30 1   
    22    12    13 2   
    23    12    30 1   
    24    13    14 1   
    25    13    24 1   
    26    14    15 1   
    27    15    25 1   
    28    15    26 1   
    29    15    27 1   
    30    17    18 ar  
    31    17    28 1   
    32    18    29 1   
    33    23    30 1   
@<TRIPOS>SUBSTRUCTURE
     1 6EN         1 TEMP              0 ****  ****    0 ROOT
