@<TRIPOS>MOLECULE
6EO
   30    31     1     0     0
SMALL
abcg2


@<TRIPOS>ATOM
      1 C10         -2.6850    -0.7110     1.4440 ca         1 6EO      -0.086000
      2 C15         -2.9710    -0.7370    -0.9300 ca         1 6EO      -0.086000
      3 C17          2.4860     1.8660    -0.6950 ca         1 6EO       0.269900
      4 C20          4.8870     1.0030     0.2010 ca         1 6EO      -0.112000
      5 O01          3.0150    -1.9170     1.2500 o          1 6EO      -0.704000
      6 O03          5.1850    -1.4650     1.3940 o          1 6EO      -0.704000
      7 C04          3.8020     0.1580     0.3820 ca         1 6EO      -0.172600
      8 C05          2.5500     0.6050    -0.0850 ca         1 6EO      -0.048000
      9 N06          1.4540    -0.2310     0.0870 ns         1 6EO      -0.158000
     10 C07          0.1690    -0.0610    -0.2900 c          1 6EO       0.606100
     11 C08         -0.7020    -1.2740     0.0130 c3         1 6EO      -0.125100
     12 C09         -2.1460    -0.9100     0.1780 ca         1 6EO      -0.046300
     13 C11         -4.0140    -0.3500     1.6120 ca         1 6EO      -0.109000
     14 C12         -4.8110    -0.1850     0.4910 ca         1 6EO       0.115000
     15 CL1         -6.4770     0.2610     0.6850 cl         1 6EO      -0.233000
     16 C14         -4.3020    -0.3770    -0.7840 ca         1 6EO      -0.109000
     17 O16         -0.2790     0.9270    -0.8450 o          1 6EO      -0.628100
     18 N18          3.5400     2.6530    -0.8530 nb         1 6EO      -0.678000
     19 C19          4.7190     2.2310    -0.4150 ca         1 6EO       0.263900
     20 H1          -2.0630    -0.8430     2.3210 ha         1 6EO       0.121000
     21 H2          -2.5780    -0.8950    -1.9260 ha         1 6EO       0.121000
     22 H3           1.5450     2.2450    -1.0620 h4         1 6EO       0.032100
     23 H4           5.8660     0.6980     0.5410 ha         1 6EO       0.134000
     24 H6           1.7440    -1.0970     0.5750 hn         1 6EO       0.230000
     25 H7          -0.5780    -1.9710    -0.8220 hc         1 6EO       0.073700
     26 H8          -0.3320    -1.7930     0.9000 hc         1 6EO       0.073700
     27 H9          -4.4190    -0.2010     2.6030 ha         1 6EO       0.120500
     28 H10         -4.9310    -0.2490    -1.6540 ha         1 6EO       0.120500
     29 H11          5.5630     2.8950    -0.5600 h4         1 6EO      -0.005900
     30 C02          4.0260    -1.1910     1.0680 c          1 6EO       0.725600
@<TRIPOS>BOND
     1     1    12 ar  
     2     1    13 ar  
     3     1    20 1   
     4     2    12 ar  
     5     2    16 ar  
     6     2    21 1   
     7     3     8 ar  
     8     3    18 ar  
     9     3    22 1   
    10     4     7 ar  
    11     4    19 ar  
    12     4    23 1   
    13     5    30 1   
    14     6    30 1   
    15     7     8 ar  
    16     7    30 1   
    17     8     9 1   
    18     9    10 1   
    19     9    24 1   
    20    10    11 1   
    21    10    17 2   
    22    11    12 1   
    23    11    25 1   
    24    11    26 1   
    25    13    14 ar  
    26    13    27 1   
    27    14    15 1   
    28    14    16 ar  
    29    16    28 1   
    30    18    19 ar  
    31    19    29 1   
@<TRIPOS>SUBSTRUCTURE
     1 6EO         1 TEMP              0 ****  ****    0 ROOT
