@<TRIPOS>MOLECULE
6EO
   30    31     1     0     0
SMALL
No Charge or Current Charge


@<TRIPOS>ATOM
      1 C10         -2.0230    -0.9370     1.2080 ca         1 6EO      -0.086000
      2 C15         -3.0920    -0.6420    -0.9590 ca         1 6EO      -0.086000
      3 C17          2.4770     1.7180    -1.0250 ca         1 6EO       0.269900
      4 C20          4.4790     1.2520     0.7890 ca         1 6EO      -0.112000
      5 O01          2.3840    -1.4450     1.9460 o          1 6EO      -0.704000
      6 O03          4.5140    -1.2430     2.1310 o          1 6EO      -0.704000
      7 C04          3.4190     0.3140     0.7390 ca         1 6EO      -0.172600
      8 C05          2.3860     0.5580    -0.2110 ca         1 6EO      -0.048000
      9 N06          1.2970    -0.3560    -0.3120 ns         1 6EO      -0.158000
     10 C07          0.2460    -0.4730    -1.2090 c          1 6EO       0.606100
     11 C08         -0.7370    -1.6030    -0.8840 c3         1 6EO      -0.125100
     12 C09         -1.9800    -1.0510    -0.1960 ca         1 6EO      -0.046300
     13 C11         -3.1680    -0.4220     1.8420 ca         1 6EO      -0.109000
     14 C12         -4.2730    -0.0180     1.0760 ca         1 6EO       0.115000
     15 Cl1         -5.7040     0.6260     1.8690 cl         1 6EO      -0.233000
     16 C14         -4.2360    -0.1270    -0.3240 ca         1 6EO      -0.109000
     17 O16          0.0880     0.2560    -2.1830 o          1 6EO      -0.628100
     18 N18          3.4970     2.6050    -0.9580 nb         1 6EO      -0.678000
     19 C19          4.4780     2.3650    -0.0650 ca         1 6EO       0.263900
     20 H1          -1.1720    -1.2470     1.8110 ha         1 6EO       0.121000
     21 H2          -3.0690    -0.7200    -2.0440 ha         1 6EO       0.121000
     22 H3           1.7100     1.9680    -1.7540 h4         1 6EO       0.032100
     23 H4           5.3010     1.1270     1.4890 ha         1 6EO       0.134000
     24 H6           1.2850    -1.0450     0.4320 hn         1 6EO       0.230000
     25 H7          -1.0230    -2.0990    -1.8190 hc         1 6EO       0.073700
     26 H8          -0.2580    -2.3330    -0.2200 hc         1 6EO       0.073700
     27 H9          -3.1990    -0.3360     2.9250 ha         1 6EO       0.120500
     28 H10         -5.0920     0.1880    -0.9150 ha         1 6EO       0.120500
     29 H11          5.2890     3.0910    -0.0300 h4         1 6EO      -0.005900
     30 C02          3.4380    -0.8880     1.6730 c          1 6EO       0.725600
@<TRIPOS>BOND
     1     1    12 ar  
     2     1    13 ar  
     3     1    20 1   
     4     2    12 ar  
     5     2    16 ar  
     6     2    21 1   
     7     3     8 ar  
     8     3    18 ar  
     9     3    22 1   
    10     4     7 ar  
    11     4    19 ar  
    12     4    23 1   
    13     5    30 1   
    14     6    30 1   
    15     7     8 ar  
    16     7    30 1   
    17     8     9 1   
    18     9    10 1   
    19     9    24 1   
    20    10    11 1   
    21    10    17 2   
    22    11    12 1   
    23    11    25 1   
    24    11    26 1   
    25    13    14 ar  
    26    13    27 1   
    27    14    15 1   
    28    14    16 ar  
    29    16    28 1   
    30    18    19 ar  
    31    19    29 1   
@<TRIPOS>SUBSTRUCTURE
     1 6EO         1 TEMP              0 ****  ****    0 ROOT
