@<TRIPOS>MOLECULE
6EP
   37    39     1     0     0
SMALL
bcc


@<TRIPOS>ATOM
      1 C10         -0.6090     3.4960    -0.2020 cc         1 6EP      -0.428300
      2 C13          1.7160     1.7920     0.0080 c3         1 6EP       0.196700
      3 C15          2.3700    -0.6200    -0.3540 ca         1 6EP      -0.081000
      4 C17          4.6090    -1.3510     0.0210 ca         1 6EP       0.030400
      5 C20          4.0370     0.9570     0.3900 ca         1 6EP      -0.069300
      6 C21          4.4440     2.3450     0.7920 c3         1 6EP      -0.049800
      7 C24         -3.2170    -2.1860    -0.5300 ca         1 6EP      -0.214300
      8 O01         -5.9360    -0.7350     1.3860 o          1 6EP      -0.811300
      9 O03         -5.6490    -2.8400     0.6980 o          1 6EP      -0.811300
     10 C04         -4.0000    -1.2520     0.1410 ca         1 6EP      -0.105600
     11 C05         -3.5370     0.0540     0.2080 ca         1 6EP      -0.187300
     12 C06         -2.3290     0.3580    -0.4080 ca         1 6EP       0.466800
     13 N07         -1.8490     1.6830    -0.3650 na         1 6EP       0.066600
     14 N08         -2.7220     2.7110    -0.3640 nd         1 6EP      -0.493800
     15 C09         -1.9840     3.7900    -0.2710 cc         1 6EP       0.319200
     16 C11         -0.5680     2.1230    -0.2630 cd         1 6EP       0.148800
     17 O12          0.4260     1.2520    -0.2040 os         1 6EP      -0.277900
     18 C14          2.7170     0.6730     0.0160 ca         1 6EP      -0.083300
     19 C16          3.3100    -1.6420    -0.3530 ca         1 6EP      -0.126000
     20 C19          4.9760    -0.0670     0.3890 ca         1 6EP      -0.131000
     21 N22         -1.5870    -0.5200    -1.0550 nb         1 6EP      -0.713000
     22 C23         -2.0260    -1.7740    -1.1010 ca         1 6EP       0.369200
     23 H1           0.2140     4.1840    -0.1120 ha         1 6EP       0.151000
     24 H2           1.9570     2.5130    -0.7830 h1         1 6EP       0.045200
     25 H3           1.7370     2.3400     0.9580 h1         1 6EP       0.045200
     26 H4           1.3550    -0.8530    -0.6480 ha         1 6EP       0.180000
     27 H5           3.8840     2.6890     1.6640 hc         1 6EP       0.042367
     28 H6           5.5020     2.3880     1.0410 hc         1 6EP       0.042367
     29 H7           4.2620     3.0640    -0.0090 hc         1 6EP       0.042367
     30 H8          -3.5290    -3.2180    -0.6070 ha         1 6EP       0.157000
     31 H10         -4.0980     0.8120     0.7340 ha         1 6EP       0.178000
     32 H11         -2.4490     4.7650    -0.2620 h4         1 6EP       0.025100
     33 H12          3.0250    -2.6440    -0.6410 ha         1 6EP       0.149000
     34 H13          5.9980     0.1450     0.6770 ha         1 6EP       0.138000
     35 H14         -1.3980    -2.4800    -1.6310 h4         1 6EP      -0.004900
     36 C02         -5.3210    -1.6460     0.8040 c          1 6EP       0.926200
     37 CL1          5.8020    -2.6110     0.0310 cl         1 6EP      -0.129400
@<TRIPOS>BOND
     1     1    15 1   
     2     1    16 2   
     3     1    23 1   
     4     2    17 1   
     5     2    18 1   
     6     2    24 1   
     7     2    25 1   
     8     3    18 ar  
     9     3    19 ar  
    10     3    26 1   
    11     4    19 ar  
    12     4    20 ar  
    13     4    37 1   
    14     5     6 1   
    15     5    18 ar  
    16     5    20 ar  
    17     6    27 1   
    18     6    28 1   
    19     6    29 1   
    20     7    10 ar  
    21     7    22 ar  
    22     7    30 1   
    23     8    36 1   
    24     9    36 1   
    25    10    11 ar  
    26    10    36 1   
    27    11    12 ar  
    28    11    31 1   
    29    12    13 1   
    30    12    21 ar  
    31    13    14 1   
    32    13    16 1   
    33    14    15 2   
    34    15    32 1   
    35    16    17 1   
    36    19    33 1   
    37    20    34 1   
    38    21    22 ar  
    39    22    35 1   
@<TRIPOS>SUBSTRUCTURE
     1 6EP         1 TEMP              0 ****  ****    0 ROOT
