@<TRIPOS>MOLECULE
6EP
   37    39     1     0     0
SMALL
No Charge or Current Charge


@<TRIPOS>ATOM
      1 C10         -0.5740     3.6890    -1.3070 cc         1 6EP      -0.345000
      2 C13          1.7210     1.9120    -0.7920 c3         1 6EP       0.219900
      3 C15          3.3530     0.1260    -1.5380 ca         1 6EP      -0.063000
      4 C17          4.3000    -1.4960     0.0020 ca         1 6EP       0.122000
      5 C20          2.7330     0.1870     0.8250 ca         1 6EP      -0.069300
      6 C21          1.9540     0.7850     1.9940 c3         1 6EP      -0.049800
      7 C24         -3.0090    -1.8450     0.1380 ca         1 6EP      -0.131000
      8 O01         -1.9070    -0.5430     3.3540 o          1 6EP      -0.706000
      9 O03         -2.5860    -2.5250     2.8690 o          1 6EP      -0.706000
     10 C04         -2.5020    -0.9560     1.1080 ca         1 6EP      -0.105600
     11 C05         -2.1770     0.3470     0.6690 ca         1 6EP      -0.104000
     12 C06         -2.3490     0.7250    -0.6830 ca         1 6EP       0.401500
     13 N07         -1.9920     2.0430    -1.0070 na         1 6EP       0.117300
     14 N08         -2.8220     3.1410    -1.2280 nd         1 6EP      -0.493800
     15 C09         -1.9240     4.1030    -1.4120 cc         1 6EP       0.253900
     16 C11         -0.6420     2.3600    -1.0530 cd         1 6EP       0.098100
     17 O12          0.3600     1.4600    -0.8160 os         1 6EP      -0.301100
     18 C14          2.6220     0.7170    -0.4860 ca         1 6EP      -0.083300
     19 C16          4.1900    -0.9760    -1.2950 ca         1 6EP      -0.108000
     20 C19          3.5760    -0.9190     1.0560 ca         1 6EP      -0.113000
     21 N22         -2.8510    -0.1580    -1.5920 nb         1 6EP      -0.713000
     22 C23         -3.1670    -1.4060    -1.1840 ca         1 6EP       0.303900
     23 H1           0.3010     4.3210    -1.4080 ha         1 6EP       0.133000
     24 H2           1.9960     2.3480    -1.7620 h1         1 6EP       0.045200
     25 H3           1.8590     2.6880    -0.0290 h1         1 6EP       0.045200
     26 H4           3.2720     0.5200    -2.5500 ha         1 6EP       0.162000
     27 H5           0.8740     0.7460     1.8120 hc         1 6EP       0.042367
     28 H6           2.1440     0.2450     2.9290 hc         1 6EP       0.042367
     29 H7           2.2330     1.8320     2.1620 hc         1 6EP       0.042367
     30 H8          -3.2840    -2.8640     0.3970 ha         1 6EP       0.139000
     31 H10         -1.7830     1.0760     1.3720 ha         1 6EP       0.160000
     32 H11         -2.2790     5.1050    -1.6110 h4         1 6EP       0.025100
     33 H12          4.7500    -1.4270    -2.1100 ha         1 6EP       0.131000
     34 H13          3.6710    -1.3370     2.0550 ha         1 6EP       0.120000
     35 H14         -3.5600    -2.0770    -1.9460 h4         1 6EP      -0.004900
     36 C02         -2.3150    -1.3750     2.5550 c          1 6EP       0.715600
     37 Cl1          5.3460    -2.8760     0.3080 cl         1 6EP      -0.221000
@<TRIPOS>BOND
     1     1    15 1   
     2     1    16 2   
     3     1    23 1   
     4     2    17 1   
     5     2    18 1   
     6     2    24 1   
     7     2    25 1   
     8     3    18 ar  
     9     3    19 ar  
    10     3    26 1   
    11     4    19 ar  
    12     4    20 ar  
    13     4    37 1   
    14     5     6 1   
    15     5    18 ar  
    16     5    20 ar  
    17     6    27 1   
    18     6    28 1   
    19     6    29 1   
    20     7    10 ar  
    21     7    22 ar  
    22     7    30 1   
    23     8    36 1   
    24     9    36 1   
    25    10    11 ar  
    26    10    36 1   
    27    11    12 ar  
    28    11    31 1   
    29    12    13 1   
    30    12    21 ar  
    31    13    14 1   
    32    13    16 1   
    33    14    15 2   
    34    15    32 1   
    35    16    17 1   
    36    19    33 1   
    37    20    34 1   
    38    21    22 ar  
    39    22    35 1   
@<TRIPOS>SUBSTRUCTURE
     1 6EP         1 TEMP              0 ****  ****    0 ROOT
