@<TRIPOS>MOLECULE
6EQ
   41    43     1     0     0
SMALL
No Charge or Current Charge


@<TRIPOS>ATOM
      1 CAO          3.1590     0.3780    -0.1170 ca         1 6EQ      -0.230000
      2 CAW          4.4940     0.7970    -0.2040 ca         1 6EQ       0.233100
      3 OAD          4.7560     2.1270    -0.2400 oh         1 6EQ      -0.625100
      4 CAZ          5.5500    -0.1370    -0.2530 ca         1 6EQ      -0.287600
      5 CAS          6.9950     0.2990    -0.3470 c          1 6EQ       0.725600
      6 OAC          7.2310     1.5000    -0.3790 o          1 6EQ      -0.700500
      7 OAA          7.8640    -0.5570    -0.3860 o          1 6EQ      -0.700500
      8 CAN          5.2250    -1.5110    -0.2130 ca         1 6EQ      -0.009000
      9 CAM          3.8860    -1.9260    -0.1260 ca         1 6EQ      -0.263000
     10 CAV          2.8390    -0.9930    -0.0770 ca         1 6EQ       0.005000
     11 NAR          1.5130    -1.4970     0.0100 ns         1 6EQ      -0.154000
     12 CAT          0.2750    -0.8740     0.0840 c          1 6EQ       0.663100
     13 OAB          0.1080     0.3400     0.0930 o          1 6EQ      -0.600100
     14 NAQ         -0.7520    -1.8040     0.1560 ns         1 6EQ      -0.174000
     15 CAU         -2.1650    -1.6670     0.2240 ca         1 6EQ       0.011000
     16 CAP         -2.8420    -0.4350     0.0770 ca         1 6EQ      -0.122000
     17 CAI         -2.9180    -2.8350     0.4360 ca         1 6EQ      -0.177000
     18 CAH         -4.3180    -2.7800     0.5100 ca         1 6EQ      -0.086000
     19 CAL         -4.9800    -1.5510     0.3670 ca         1 6EQ      -0.140000
     20 CAY         -4.2560    -0.3540     0.1480 cp         1 6EQ      -0.010000
     21 CAX         -4.9640     0.9580    -0.0080 cp         1 6EQ      -0.030000
     22 CAJ         -4.4020     2.1600     0.4940 ca         1 6EQ      -0.096000
     23 CAF         -5.0670     3.3900     0.3480 ca         1 6EQ      -0.114000
     24 CAE         -6.3080     3.4450    -0.3050 ca         1 6EQ      -0.112000
     25 CAG         -6.8840     2.2690    -0.8110 ca         1 6EQ      -0.114000
     26 CAK         -6.2200     1.0400    -0.6630 ca         1 6EQ      -0.096000
     27 H1           2.3870     1.1390    -0.0830 ha         1 6EQ       0.140000
     28 H2           5.7540     2.1700    -0.3010 ho         1 6EQ       0.549000
     29 H4           6.0080    -2.2660    -0.2490 ha         1 6EQ       0.120000
     30 H5           3.6640    -2.9900    -0.0970 ha         1 6EQ       0.082000
     31 H6           1.4690    -2.5080     0.0180 hn         1 6EQ       0.135000
     32 H7          -0.4390    -2.7660     0.1580 hn         1 6EQ       0.142000
     33 H8          -2.2870     0.4750    -0.1170 ha         1 6EQ       0.154000
     34 H9          -2.4160    -3.7940     0.5480 ha         1 6EQ       0.106000
     35 H10         -4.8910    -3.6890     0.6790 ha         1 6EQ       0.105000
     36 H11         -6.0640    -1.5270     0.4410 ha         1 6EQ       0.110000
     37 H12         -3.4480     2.1380     1.0150 ha         1 6EQ       0.116500
     38 H13         -4.6200     4.2990     0.7440 ha         1 6EQ       0.109000
     39 H14         -6.8220     4.3970    -0.4190 ha         1 6EQ       0.107000
     40 H15         -7.8450     2.3100    -1.3190 ha         1 6EQ       0.109000
     41 H16         -6.6780     0.1430    -1.0730 ha         1 6EQ       0.116500
@<TRIPOS>BOND
     1     1     2 ar  
     2     1    10 ar  
     3     1    27 1   
     4     2     3 1   
     5     2     4 ar  
     6     3    28 1   
     7     4     5 1   
     8     4     8 ar  
     9     5     6 1   
    10     5     7 1   
    11     8     9 ar  
    12     8    29 1   
    13     9    10 ar  
    14     9    30 1   
    15    10    11 1   
    16    11    12 1   
    17    11    31 1   
    18    12    13 2   
    19    12    14 1   
    20    14    15 1   
    21    14    32 1   
    22    15    16 ar  
    23    15    17 ar  
    24    16    20 ar  
    25    16    33 1   
    26    17    18 ar  
    27    17    34 1   
    28    18    19 ar  
    29    18    35 1   
    30    19    20 ar  
    31    19    36 1   
    32    20    21 1   
    33    21    22 ar  
    34    21    26 ar  
    35    22    23 ar  
    36    22    37 1   
    37    23    24 ar  
    38    23    38 1   
    39    24    25 ar  
    40    24    39 1   
    41    25    26 ar  
    42    25    40 1   
    43    26    41 1   
@<TRIPOS>SUBSTRUCTURE
     1 6EQ         1 TEMP              0 ****  ****    0 ROOT
