@<TRIPOS>MOLECULE
6EQ
   41    43     1     0     0
SMALL
abcg2


@<TRIPOS>ATOM
      1 CAO          2.9280     0.2200    -0.5510 ca         1 6EQ      -0.230000
      2 CAW          4.2300     0.7050    -0.7100 ca         1 6EQ       0.233100
      3 OAD          4.4050     1.8740    -1.3190 oh         1 6EQ      -0.625100
      4 CAZ          5.3360    -0.0250    -0.2370 ca         1 6EQ      -0.287600
      5 CAS          6.7280     0.5090    -0.4010 c          1 6EQ       0.725600
      6 OAC          6.8190     1.6370    -0.9870 o          1 6EQ      -0.700500
      7 OAA          7.6850    -0.1450     0.0250 o          1 6EQ      -0.700500
      8 CAN          5.0910    -1.2460     0.3860 ca         1 6EQ      -0.009000
      9 CAM          3.8140    -1.7390     0.5470 ca         1 6EQ      -0.263000
     10 CAV          2.7160    -1.0020     0.0780 ca         1 6EQ       0.005000
     11 NAR          1.4630    -1.5790     0.2750 ns         1 6EQ      -0.154000
     12 CAT          0.2250    -1.0570     0.0110 c          1 6EQ       0.663100
     13 OAB          0.0330     0.0690    -0.4090 o          1 6EQ      -0.600100
     14 NAQ         -0.7780    -1.9520     0.2770 ns         1 6EQ      -0.174000
     15 CAU         -2.1540    -1.7550     0.1560 ca         1 6EQ       0.011000
     16 CAP         -2.7650    -0.5020     0.1410 ca         1 6EQ      -0.122000
     17 CAI         -2.9510    -2.9010     0.0850 ca         1 6EQ      -0.177000
     18 CAH         -4.3270    -2.7870    -0.0060 ca         1 6EQ      -0.086000
     19 CAL         -4.9340    -1.5410    -0.0300 ca         1 6EQ      -0.140000
     20 CAY         -4.1530    -0.3900     0.0460 cp         1 6EQ      -0.010000
     21 CAX         -4.7830     0.9470     0.0430 cp         1 6EQ      -0.030000
     22 CAJ         -4.2800     1.9780     0.8400 ca         1 6EQ      -0.096000
     23 CAF         -4.8750     3.2310     0.8410 ca         1 6EQ      -0.114000
     24 CAE         -5.9850     3.4790     0.0440 ca         1 6EQ      -0.112000
     25 CAG         -6.4950     2.4630    -0.7530 ca         1 6EQ      -0.114000
     26 CAK         -5.8990     1.2100    -0.7530 ca         1 6EQ      -0.096000
     27 H1           2.1080     0.8130    -0.9240 ha         1 6EQ       0.140000
     28 H2           5.4250     2.0000    -1.2990 ho         1 6EQ       0.549000
     29 H4           5.9310    -1.8220     0.7540 ha         1 6EQ       0.120000
     30 H5           3.6570    -2.6920     1.0390 ha         1 6EQ       0.082000
     31 H6           1.4920    -2.4890     0.7110 hn         1 6EQ       0.135000
     32 H7          -0.5080    -2.9050     0.4690 hn         1 6EQ       0.142000
     33 H8          -2.1670     0.3940     0.1900 ha         1 6EQ       0.154000
     34 H9          -2.4900    -3.8810     0.1000 ha         1 6EQ       0.106000
     35 H10         -4.9320    -3.6830    -0.0550 ha         1 6EQ       0.105000
     36 H11         -6.0130    -1.4680    -0.0830 ha         1 6EQ       0.110000
     37 H12         -3.4280     1.7970     1.4820 ha         1 6EQ       0.116500
     38 H13         -4.4740     4.0130     1.4730 ha         1 6EQ       0.109000
     39 H14         -6.4480     4.4570     0.0430 ha         1 6EQ       0.107000
     40 H15         -7.3560     2.6450    -1.3830 ha         1 6EQ       0.109000
     41 H16         -6.2980     0.4340    -1.3950 ha         1 6EQ       0.116500
@<TRIPOS>BOND
     1     1     2 ar  
     2     1    10 ar  
     3     1    27 1   
     4     2     3 1   
     5     2     4 ar  
     6     3    28 1   
     7     4     5 1   
     8     4     8 ar  
     9     5     6 1   
    10     5     7 1   
    11     8     9 ar  
    12     8    29 1   
    13     9    10 ar  
    14     9    30 1   
    15    10    11 1   
    16    11    12 1   
    17    11    31 1   
    18    12    13 2   
    19    12    14 1   
    20    14    15 1   
    21    14    32 1   
    22    15    16 ar  
    23    15    17 ar  
    24    16    20 ar  
    25    16    33 1   
    26    17    18 ar  
    27    17    34 1   
    28    18    19 ar  
    29    18    35 1   
    30    19    20 ar  
    31    19    36 1   
    32    20    21 1   
    33    21    22 ar  
    34    21    26 ar  
    35    22    23 ar  
    36    22    37 1   
    37    23    24 ar  
    38    23    38 1   
    39    24    25 ar  
    40    24    39 1   
    41    25    26 ar  
    42    25    40 1   
    43    26    41 1   
@<TRIPOS>SUBSTRUCTURE
     1 6EQ         1 TEMP              0 ****  ****    0 ROOT
