@<TRIPOS>MOLECULE
6ET
   46    48     1     0     0
SMALL
No Charge or Current Charge


@<TRIPOS>ATOM
      1 C10          3.2510    -0.1400     0.7060 ca         1 6ET      -0.121300
      2 C17         -1.3690     1.0470     0.1920 c3         1 6ET       0.105000
      3 C20         -3.8390    -1.0680    -0.7120 ca         1 6ET      -0.094500
      4 C21         -5.2170    -1.2180    -0.9530 ca         1 6ET      -0.100500
      5 C22         -6.1480    -0.7600    -0.0070 ca         1 6ET       0.123000
      6 C24         -5.7060    -0.1520     1.1790 ca         1 6ET      -0.100500
      7 O01          4.7120    -3.6690    -1.0300 oh         1 6ET      -0.553100
      8 C02          4.2370    -2.5160    -0.4620 ca         1 6ET       0.058100
      9 C03          4.7170    -1.2690    -0.8890 ca         1 6ET      -0.164000
     10 C04          4.2420    -0.0690    -0.3150 ca         1 6ET      -0.048300
     11 C05          4.8370     1.2340    -0.8820 c3         1 6ET      -0.028100
     12 C06          4.6480     2.5430    -0.0790 c3         1 6ET      -0.094400
     13 C07          3.1920     3.0660    -0.0820 c3         1 6ET       0.096000
     14 N08          2.1700     2.1160     0.4200 n          1 6ET      -0.355800
     15 C09          2.6680     1.0960     1.3800 c3         1 6ET       0.128300
     16 C11          2.7770    -1.4010     1.1290 ca         1 6ET      -0.125000
     17 C12          3.2650    -2.5800     0.5500 ca         1 6ET       0.120100
     18 O13          2.8010    -3.7940     0.9640 oh         1 6ET      -0.532100
     19 C14          0.8360     2.2730     0.0750 cs         1 6ET       0.482400
     20 S15          0.2030     3.5660    -0.7820 s          1 6ET      -0.687400
     21 N16          0.0650     1.2040     0.4390 ns         1 6ET      -0.451900
     22 C18         -1.8980    -0.2930     0.7360 c3         1 6ET      -0.050100
     23 C19         -3.3890    -0.4610     0.4770 ca         1 6ET      -0.081300
     24 C25         -4.3290    -0.0020     1.4210 ca         1 6ET      -0.094500
     25 H172        -1.9060     1.8760     0.6730 h1         1 6ET       0.073200
     26 H171        -1.5530     1.1010    -0.8890 h1         1 6ET       0.073200
     27 H201        -3.1230    -1.4230    -1.4500 ha         1 6ET       0.117500
     28 H211        -5.5610    -1.6870    -1.8710 ha         1 6ET       0.130500
     29 H241        -6.4300     0.2030     1.9090 ha         1 6ET       0.130500
     30 H011         5.3800    -3.4350    -1.7130 ho         1 6ET       0.478000
     31 H031         5.4670    -1.2240    -1.6760 ha         1 6ET       0.116000
     32 H051         5.9180     1.0930    -1.0120 hc         1 6ET       0.056200
     33 H052         4.4420     1.3920    -1.8940 hc         1 6ET       0.056200
     34 H062         5.0320     2.4230     0.9400 hc         1 6ET       0.052200
     35 H061         5.2760     3.3170    -0.5370 hc         1 6ET       0.052200
     36 H071         3.1400     3.9830     0.5200 h1         1 6ET       0.078700
     37 H072         2.9400     3.3390    -1.1150 h1         1 6ET       0.078700
     38 H091         1.8650     0.8050     2.0690 h1         1 6ET       0.066700
     39 H092         3.4270     1.5420     2.0340 h1         1 6ET       0.066700
     40 H111         2.0260    -1.4730     1.9120 ha         1 6ET       0.130000
     41 H131         3.2800    -4.4630     0.4240 ho         1 6ET       0.484000
     42 H161         0.5490     0.4310     0.8750 hn         1 6ET       0.311500
     43 H181        -1.3400    -1.1150     0.2710 hc         1 6ET       0.052700
     44 H182        -1.6930    -0.3500     1.8120 hc         1 6ET       0.052700
     45 H251        -3.9940     0.4720     2.3410 ha         1 6ET       0.117500
     46 Cl2         -7.8710    -0.9470    -0.3100 cl         1 6ET      -0.203000
@<TRIPOS>BOND
     1     1    10 ar  
     2     1    15 1   
     3     1    16 ar  
     4     2    21 1   
     5     2    22 1   
     6     2    25 1   
     7     2    26 1   
     8     3     4 ar  
     9     3    23 ar  
    10     3    27 1   
    11     4     5 ar  
    12     4    28 1   
    13     5     6 ar  
    14     5    46 1   
    15     6    24 ar  
    16     6    29 1   
    17     7     8 1   
    18     7    30 1   
    19     8     9 ar  
    20     8    17 ar  
    21     9    10 ar  
    22     9    31 1   
    23    10    11 1   
    24    11    12 1   
    25    11    32 1   
    26    11    33 1   
    27    12    13 1   
    28    12    34 1   
    29    12    35 1   
    30    13    14 1   
    31    13    36 1   
    32    13    37 1   
    33    14    15 1   
    34    14    19 1   
    35    15    38 1   
    36    15    39 1   
    37    16    17 ar  
    38    16    40 1   
    39    17    18 1   
    40    18    41 1   
    41    19    20 2   
    42    19    21 1   
    43    21    42 1   
    44    22    23 1   
    45    22    43 1   
    46    22    44 1   
    47    23    24 ar  
    48    24    45 1   
@<TRIPOS>SUBSTRUCTURE
     1 6ET         1 TEMP              0 ****  ****    0 ROOT
