@<TRIPOS>MOLECULE
6ET
   46    48     1     0     0
SMALL
bcc


@<TRIPOS>ATOM
      1 C10          3.1720    -0.0750     0.8180 ca         1 6ET      -0.121300
      2 C17         -1.1450     0.9420     0.1490 c3         1 6ET       0.105000
      3 C20         -3.5440    -1.2150    -0.7340 ca         1 6ET      -0.112500
      4 C21         -4.8870    -1.3310    -1.0620 ca         1 6ET      -0.118500
      5 C22         -5.8340    -0.7470    -0.2370 ca         1 6ET       0.031400
      6 C24         -5.4590    -0.0570     0.9050 ca         1 6ET      -0.118500
      7 O01          4.2310    -3.6360    -1.0110 oh         1 6ET      -0.514100
      8 C02          3.9050    -2.4490    -0.4500 ca         1 6ET       0.058100
      9 C03          4.2160    -1.2190    -1.0040 ca         1 6ET      -0.182000
     10 C04          3.8590    -0.0150    -0.3960 ca         1 6ET      -0.048300
     11 C05          4.2210     1.2690    -1.1110 c3         1 6ET      -0.028100
     12 C06          4.5010     2.4800    -0.2230 c3         1 6ET      -0.094400
     13 C07          3.2290     3.1810     0.2410 c3         1 6ET       0.096000
     14 N08          2.2400     2.2150     0.6880 n          1 6ET      -0.422800
     15 C09          2.7460     1.1710     1.5600 c3         1 6ET       0.128300
     16 C11          2.8560    -1.3140     1.3760 ca         1 6ET      -0.143000
     17 C12          3.2120    -2.5030     0.7630 ca         1 6ET       0.120100
     18 O13          2.8830    -3.6740     1.3510 oh         1 6ET      -0.493100
     19 C14          0.9700     2.2040     0.2360 cs         1 6ET       0.616400
     20 S15          0.2730     3.5070    -0.5810 s          1 6ET      -0.687400
     21 N16          0.2490     1.1010     0.5000 ns         1 6ET      -0.518900
     22 C18         -1.6790    -0.3640     0.7320 c3         1 6ET      -0.050100
     23 C19         -3.1360    -0.5280     0.4050 ca         1 6ET      -0.081300
     24 C25         -4.1110     0.0480     1.2150 ca         1 6ET      -0.112500
     25 H172        -1.7120     1.7860     0.5450 h1         1 6ET       0.073200
     26 H171        -1.2790     0.9500    -0.9360 h1         1 6ET       0.073200
     27 H201        -2.8050    -1.6770    -1.3790 ha         1 6ET       0.135500
     28 H211        -5.1880    -1.8700    -1.9510 ha         1 6ET       0.148500
     29 H241        -6.2040     0.3930     1.5480 ha         1 6ET       0.148500
     30 H011         4.6720    -3.5050    -1.8570 ho         1 6ET       0.439000
     31 H031         4.7610    -1.1940    -1.9440 ha         1 6ET       0.134000
     32 H051         5.1060     1.0720    -1.7190 hc         1 6ET       0.056200
     33 H052         3.4290     1.5200    -1.8270 hc         1 6ET       0.056200
     34 H062         5.1260     2.1840     0.6240 hc         1 6ET       0.052200
     35 H061         5.0880     3.2100    -0.7840 hc         1 6ET       0.052200
     36 H071         3.4480     3.8910     1.0440 h1         1 6ET       0.078700
     37 H072         2.7950     3.7440    -0.5810 h1         1 6ET       0.078700
     38 H091         1.9950     0.9290     2.3160 h1         1 6ET       0.066700
     39 H092         3.5850     1.5930     2.1160 h1         1 6ET       0.066700
     40 H111         2.3150    -1.3580     2.3150 ha         1 6ET       0.148000
     41 H131         3.1370    -4.4160     0.7890 ho         1 6ET       0.445000
     42 H161         0.7410     0.2470     0.7200 hn         1 6ET       0.311500
     43 H181        -1.1120    -1.2080     0.3280 hc         1 6ET       0.052700
     44 H182        -1.5360    -0.3660     1.8150 hc         1 6ET       0.052700
     45 H251        -3.8190     0.5840     2.1100 ha         1 6ET       0.135500
     46 CL2         -7.5170    -0.8870    -0.6360 cl         1 6ET      -0.111400
@<TRIPOS>BOND
     1     1    10 ar  
     2     1    15 1   
     3     1    16 ar  
     4     2    21 1   
     5     2    22 1   
     6     2    25 1   
     7     2    26 1   
     8     3     4 ar  
     9     3    23 ar  
    10     3    27 1   
    11     4     5 ar  
    12     4    28 1   
    13     5     6 ar  
    14     5    46 1   
    15     6    24 ar  
    16     6    29 1   
    17     7     8 1   
    18     7    30 1   
    19     8     9 ar  
    20     8    17 ar  
    21     9    10 ar  
    22     9    31 1   
    23    10    11 1   
    24    11    12 1   
    25    11    32 1   
    26    11    33 1   
    27    12    13 1   
    28    12    34 1   
    29    12    35 1   
    30    13    14 1   
    31    13    36 1   
    32    13    37 1   
    33    14    15 1   
    34    14    19 1   
    35    15    38 1   
    36    15    39 1   
    37    16    17 ar  
    38    16    40 1   
    39    17    18 1   
    40    18    41 1   
    41    19    20 2   
    42    19    21 1   
    43    21    42 1   
    44    22    23 1   
    45    22    43 1   
    46    22    44 1   
    47    23    24 ar  
    48    24    45 1   
@<TRIPOS>SUBSTRUCTURE
     1 6ET         1 TEMP              0 ****  ****    0 ROOT
