@<TRIPOS>MOLECULE
6EU
   86    92     1     0     0
SMALL
No Charge or Current Charge


@<TRIPOS>ATOM
      1 CBT          3.9400    -4.4810     1.3060 c3         1 6EU       0.144900
      2 OAH          5.3430    -4.5960     1.0080 os         1 6EU      -0.320100
      3 CBQ          6.1310    -3.4970     0.7060 ca         1 6EU       0.114100
      4 CBO          5.6140    -2.1810     0.7300 ca         1 6EU      -0.149000
      5 CBS          7.4890    -3.7010     0.3600 ca         1 6EU       0.117100
      6 OAI          8.0260    -4.9610     0.3280 oh         1 6EU      -0.513100
      7 CBR          8.3060    -2.6030     0.0390 ca         1 6EU      -0.178000
      8 CBP          7.7810    -1.3000     0.0580 ca         1 6EU      -0.088000
      9 CBN          6.4340    -1.0830     0.4040 ca         1 6EU      -0.078300
     10 CBM          5.8550     0.3300     0.4220 c3         1 6EU      -0.085100
     11 CBK          4.7890     0.4920    -0.6650 c          1 6EU       0.592100
     12 OAG          5.0450     0.6600    -1.8500 o          1 6EU      -0.471000
     13 OAF          3.5270     0.3060    -0.1640 os         1 6EU      -0.453100
     14 CBC          2.4240     0.3260    -1.0830 c3         1 6EU       0.201800
     15 CAX          1.1540     0.0440    -0.2900 c2         1 6EU      -0.139400
     16 CAS          0.1980     0.9910    -0.1620 c2         1 6EU      -0.160200
     17 CAK         -1.0990     0.9170     0.6630 c6         1 6EU      -0.075500
     18 CAU          1.1480    -1.3840     0.2820 c3         1 6EU      -0.059200
     19 CAR         -0.2260    -2.0080     0.6760 c5         1 6EU       0.090000
     20 OAD         -0.4160    -1.7890     2.0900 oh         1 6EU      -0.647000
     21 CAZ         -0.2500    -3.5530     0.4090 c          1 6EU       0.545300
     22 OAE          0.5980    -4.3970     0.6800 o          1 6EU      -0.511100
     23 CBA         -1.5910    -3.8110    -0.1750 ce         1 6EU      -0.214400
     24 CBF         -2.1450    -5.2240    -0.2400 c3         1 6EU      -0.029900
     25 CAW         -2.2670    -2.7050    -0.5290 c2         1 6EU      -0.130200
     26 CAO         -1.4090    -1.4820    -0.2340 c5         1 6EU      -0.028500
     27 CAJ         -2.1540    -0.1720     0.2180 c6         1 6EU       0.198000
     28 OAA         -2.8940     0.3270    -0.9350 os         1 6EU      -0.426000
     29 CAN         -3.1950    -0.3770     1.4170 c6         1 6EU      -0.068700
     30 CAT         -4.5460    -1.0670     1.0290 c3         1 6EU      -0.077100
     31 CAP         -3.4730     0.9600     2.1810 c6         1 6EU      -0.078400
     32 CAM         -3.2920     2.2050     1.2720 c5         1 6EU       0.155200
     33 CAV         -3.6270     3.5570     1.9500 c2         1 6EU      -0.137400
     34 CBB         -3.8460     4.6370     1.1740 c2         1 6EU      -0.273000
     35 CBD         -3.6610     3.6640     3.4670 c3         1 6EU      -0.053900
     36 OAC         -4.1550     2.0550     0.1160 os         1 6EU      -0.390000
     37 CAL         -1.8420     2.2840     0.6400 c5         1 6EU       0.090300
     38 OAB         -2.1350     2.5490    -0.7420 os         1 6EU      -0.380000
     39 CAQ         -3.2810     1.7330    -0.9750 c5         1 6EU       0.475000
     40 CAY         -3.9410     2.0560    -2.3350 c3         1 6EU       0.008900
     41 CBE         -4.3950     3.5060    -2.4920 ca         1 6EU      -0.079300
     42 CBG         -3.5050     4.4800    -2.9890 ca         1 6EU      -0.090500
     43 CBI         -3.9180     5.8170    -3.1200 ca         1 6EU      -0.117000
     44 CBL         -5.2230     6.1900    -2.7570 ca         1 6EU      -0.108000
     45 CBJ         -6.1150     5.2240    -2.2610 ca         1 6EU      -0.117000
     46 CBH         -5.7020     3.8860    -2.1300 ca         1 6EU      -0.090500
     47 H1           3.7790    -3.8660     2.2000 h1         1 6EU       0.040033
     48 H2           3.4000    -4.0290     0.4640 h1         1 6EU       0.040033
     49 H3           3.5080    -5.4720     1.4940 h1         1 6EU       0.040033
     50 HBS          4.5780    -1.9940     0.9980 ha         1 6EU       0.118000
     51 HAI          8.9680    -4.8930     0.0680 ho         1 6EU       0.459000
     52 HBU          9.3490    -2.7520    -0.2300 ha         1 6EU       0.116000
     53 HBT          8.4240    -0.4600    -0.1970 ha         1 6EU       0.114000
     54 H4           5.3980     0.5100     1.4020 hc         1 6EU       0.078200
     55 H5           6.6450     1.0680     0.2450 hc         1 6EU       0.078200
     56 H6           2.3570     1.3020    -1.5820 h1         1 6EU       0.054200
     57 H7           2.5540    -0.4370    -1.8630 h1         1 6EU       0.054200
     58 H8           0.3650     1.9550    -0.6470 ha         1 6EU       0.195000
     59 H9          -0.7940     0.7240     1.6990 hc         1 6EU       0.093700
     60 H10          1.5800    -2.0390    -0.4860 hc         1 6EU       0.062700
     61 H11          1.8520    -1.4490     1.1200 hc         1 6EU       0.062700
     62 HAD          0.2900    -2.2820     2.5630 ho         1 6EU       0.459000
     63 H12         -1.8000    -5.7410    -1.1430 hc         1 6EU       0.048033
     64 H13         -1.8310    -5.8190     0.6260 hc         1 6EU       0.048033
     65 H14         -3.2420    -5.2250    -0.2550 hc         1 6EU       0.048033
     66 H15         -3.2590    -2.6950    -0.9850 ha         1 6EU       0.205000
     67 H16         -0.9920    -1.2010    -1.2080 hc         1 6EU       0.093700
     68 H17         -2.7630    -1.0610     2.1560 hc         1 6EU       0.073700
     69 H18         -4.4200    -2.1290     0.8010 hc         1 6EU       0.038033
     70 H19         -5.2570    -1.0360     1.8630 hc         1 6EU       0.038033
     71 H20         -5.0330    -0.5860     0.1740 hc         1 6EU       0.038033
     72 H21         -4.4780     0.9630     2.6240 hc         1 6EU       0.056700
     73 H22         -2.7780     1.0340     3.0290 hc         1 6EU       0.056700
     74 H24         -4.0710     5.6140     1.6000 ha         1 6EU       0.174500
     75 H25         -3.8070     4.5910     0.0860 ha         1 6EU       0.174500
     76 H27         -2.7060     3.3500     3.9050 hc         1 6EU       0.039367
     77 H28         -3.8480     4.6930     3.7970 hc         1 6EU       0.039367
     78 H29         -4.4540     3.0390     3.8950 hc         1 6EU       0.039367
     79 H30         -1.2160     3.0810     1.0640 h1         1 6EU       0.098700
     80 H31         -3.2370     1.8020    -3.1350 hc         1 6EU       0.072700
     81 H32         -4.7950     1.3840    -2.4760 hc         1 6EU       0.072700
     82 HBL         -2.4910     4.2010    -3.2660 ha         1 6EU       0.116000
     83 HBN         -3.2260     6.5640    -3.5020 ha         1 6EU       0.111500
     84 HBP         -5.5420     7.2250    -2.8570 ha         1 6EU       0.111000
     85 HBO         -7.1240     5.5110    -1.9760 ha         1 6EU       0.111500
     86 HBM         -6.3970     3.1470    -1.7380 ha         1 6EU       0.116000
@<TRIPOS>BOND
     1     1     2 1   
     2     1    47 1   
     3     1    48 1   
     4     1    49 1   
     5     2     3 1   
     6     3     4 ar  
     7     3     5 ar  
     8     4     9 ar  
     9     4    50 1   
    10     5     6 1   
    11     5     7 ar  
    12     6    51 1   
    13     7     8 ar  
    14     7    52 1   
    15     8     9 ar  
    16     8    53 1   
    17     9    10 1   
    18    10    11 1   
    19    10    54 1   
    20    10    55 1   
    21    11    12 2   
    22    11    13 1   
    23    13    14 1   
    24    14    15 1   
    25    14    56 1   
    26    14    57 1   
    27    15    16 2   
    28    15    18 1   
    29    16    17 1   
    30    16    58 1   
    31    17    27 1   
    32    17    37 1   
    33    17    59 1   
    34    18    19 1   
    35    18    60 1   
    36    18    61 1   
    37    19    20 1   
    38    19    21 1   
    39    19    26 1   
    40    20    62 1   
    41    21    22 2   
    42    21    23 1   
    43    23    24 1   
    44    23    25 2   
    45    24    63 1   
    46    24    64 1   
    47    24    65 1   
    48    25    26 1   
    49    25    66 1   
    50    26    27 1   
    51    26    67 1   
    52    27    28 1   
    53    27    29 1   
    54    28    39 1   
    55    29    30 1   
    56    29    31 1   
    57    29    68 1   
    58    30    69 1   
    59    30    70 1   
    60    30    71 1   
    61    31    32 1   
    62    31    72 1   
    63    31    73 1   
    64    32    33 1   
    65    32    36 1   
    66    32    37 1   
    67    33    34 2   
    68    33    35 1   
    69    34    74 1   
    70    34    75 1   
    71    35    76 1   
    72    35    77 1   
    73    35    78 1   
    74    36    39 1   
    75    37    38 1   
    76    37    79 1   
    77    38    39 1   
    78    39    40 1   
    79    40    41 1   
    80    40    80 1   
    81    40    81 1   
    82    41    42 ar  
    83    41    46 ar  
    84    42    43 ar  
    85    42    82 1   
    86    43    44 ar  
    87    43    83 1   
    88    44    45 ar  
    89    44    84 1   
    90    45    46 ar  
    91    45    85 1   
    92    46    86 1   
@<TRIPOS>SUBSTRUCTURE
     1 6EU         1 TEMP              0 ****  ****    0 ROOT
