@<TRIPOS>MOLECULE
6EU
   86    92     1     0     0
SMALL
abcg2


@<TRIPOS>ATOM
      1 CBT          8.2540    -1.4370     3.1970 c3         1 6EU       0.144900
      2 OAH          8.7970    -0.9310     1.9950 os         1 6EU      -0.320100
      3 CBQ          7.9470    -0.4630     1.0610 ca         1 6EU       0.114100
      4 CBO          6.5680    -0.4200     1.1890 ca         1 6EU      -0.149000
      5 CBS          8.5450     0.0150    -0.1200 ca         1 6EU       0.117100
      6 OAI          9.8910    -0.0470    -0.1910 oh         1 6EU      -0.513100
      7 CBR          7.7450     0.5190    -1.1280 ca         1 6EU      -0.178000
      8 CBP          6.3600     0.5560    -0.9880 ca         1 6EU      -0.088000
      9 CBN          5.7610     0.0870     0.1670 ca         1 6EU      -0.078300
     10 CBM          4.2720     0.1080     0.3360 c3         1 6EU      -0.085100
     11 CBK          3.6340    -1.2380     0.0880 c          1 6EU       0.592100
     12 OAG          4.2170    -2.2400    -0.2350 o          1 6EU      -0.471000
     13 OAF          2.3190    -1.1790     0.2720 os         1 6EU      -0.453100
     14 CBC          1.5600    -2.3610     0.0590 c3         1 6EU       0.201800
     15 CAX          0.0930    -2.1110     0.2830 c2         1 6EU      -0.139400
     16 CAS         -0.3840    -0.8940     0.5510 c2         1 6EU      -0.160200
     17 CAK         -1.7880    -0.4570     0.8860 c6         1 6EU      -0.075500
     18 CAU         -0.6730    -3.3930     0.0820 c3         1 6EU      -0.059200
     19 CAR         -2.1860    -3.2740     0.1140 c5         1 6EU       0.090000
     20 OAD         -2.6840    -3.1350     1.4250 oh         1 6EU      -0.647000
     21 CAZ         -2.8830    -4.5070    -0.4860 c          1 6EU       0.545300
     22 OAE         -2.6540    -5.6480    -0.1500 o          1 6EU      -0.511100
     23 CBA         -3.8640    -4.0610    -1.4780 ce         1 6EU      -0.214400
     24 CBF         -4.7700    -5.0030    -2.1870 c3         1 6EU      -0.029900
     25 CAW         -3.7320    -2.7380    -1.6380 c2         1 6EU      -0.130200
     26 CAO         -2.6510    -2.1270    -0.8000 c5         1 6EU      -0.028500
     27 CAJ         -2.9160    -0.7750    -0.1280 c6         1 6EU       0.198000
     28 OAA         -2.8540     0.1530    -1.2260 os         1 6EU      -0.426000
     29 CAN         -4.2700    -0.6590     0.6230 c6         1 6EU      -0.068700
     30 CAT         -5.5000    -0.4970    -0.2690 c3         1 6EU      -0.077100
     31 CAP         -4.2070     0.4590     1.6860 c6         1 6EU      -0.078400
     32 CAM         -3.2770     1.5870     1.2550 c5         1 6EU       0.155200
     33 CAV         -3.2940     2.7750     2.1870 c2         1 6EU      -0.137400
     34 CBB         -3.3970     4.0250     1.7450 c2         1 6EU      -0.273000
     35 CBD         -3.1500     2.4560     3.6470 c3         1 6EU      -0.053900
     36 OAC         -3.6340     1.9740    -0.0650 os         1 6EU      -0.390000
     37 CAL         -1.8230     1.0580     1.0530 c5         1 6EU       0.090300
     38 OAB         -1.4690     1.6390    -0.1880 os         1 6EU      -0.380000
     39 CAQ         -2.6430     1.4960    -0.9160 c5         1 6EU       0.475000
     40 CAY         -2.6000     2.2740    -2.2190 c3         1 6EU       0.008900
     41 CBE         -2.4910     3.7560    -2.0060 ca         1 6EU      -0.079300
     42 CBG         -1.2600     4.3570    -1.7570 ca         1 6EU      -0.090500
     43 CBI         -1.1700     5.7240    -1.5330 ca         1 6EU      -0.117000
     44 CBL         -2.3130     6.5130    -1.5590 ca         1 6EU      -0.108000
     45 CBJ         -3.5440     5.9260    -1.8180 ca         1 6EU      -0.117000
     46 CBH         -3.6290     4.5580    -2.0390 ca         1 6EU      -0.090500
     47 H1           7.6990    -0.6740     3.7490 h1         1 6EU       0.040033
     48 H2           7.5940    -2.2910     3.0190 h1         1 6EU       0.040033
     49 H3           9.0950    -1.7650     3.8030 h1         1 6EU       0.040033
     50 HBS          6.0950    -0.7820     2.0920 ha         1 6EU       0.118000
     51 HAI         10.1920     0.3060    -1.0350 ho         1 6EU       0.459000
     52 HBU          8.2030     0.8940    -2.0370 ha         1 6EU       0.116000
     53 HBT          5.7580     0.9590    -1.7920 ha         1 6EU       0.114000
     54 H4           3.9950     0.4350     1.3430 hc         1 6EU       0.078200
     55 H5           3.8130     0.8300    -0.3450 hc         1 6EU       0.078200
     56 H6           1.7160    -2.7270    -0.9610 h1         1 6EU       0.054200
     57 H7           1.9020    -3.1530     0.7340 h1         1 6EU       0.054200
     58 H8           0.3500    -0.0990     0.6100 ha         1 6EU       0.195000
     59 H9          -2.0630    -0.9160     1.8370 hc         1 6EU       0.093700
     60 H10         -0.3840    -3.7940    -0.8980 hc         1 6EU       0.062700
     61 H11         -0.3390    -4.1480     0.8040 hc         1 6EU       0.062700
     62 HAD         -2.3540    -3.8720     1.9540 ho         1 6EU       0.459000
     63 H12         -4.2010    -5.7430    -2.7530 hc         1 6EU       0.048033
     64 H13         -5.3920    -5.5530    -1.4800 hc         1 6EU       0.048033
     65 H14         -5.4260    -4.4790    -2.8800 hc         1 6EU       0.048033
     66 H15         -4.2780    -2.1600    -2.3730 ha         1 6EU       0.205000
     67 H16         -1.8240    -1.9200    -1.4900 hc         1 6EU       0.093700
     68 H17         -4.3910    -1.5980     1.1620 hc         1 6EU       0.073700
     69 H18         -5.6400    -1.3370    -0.9480 hc         1 6EU       0.038033
     70 H19         -6.3900    -0.4570     0.3610 hc         1 6EU       0.038033
     71 H20         -5.4770     0.4140    -0.8620 hc         1 6EU       0.038033
     72 H21         -5.2080     0.8570     1.8690 hc         1 6EU       0.056700
     73 H22         -3.8670     0.0550     2.6420 hc         1 6EU       0.056700
     74 H24         -3.3800     4.8540     2.4410 ha         1 6EU       0.174500
     75 H25         -3.4950     4.2690     0.6970 ha         1 6EU       0.174500
     76 H27         -2.3030     1.7920     3.8370 hc         1 6EU       0.039367
     77 H28         -3.0020     3.3620     4.2330 hc         1 6EU       0.039367
     78 H29         -4.0350     1.9490     4.0360 hc         1 6EU       0.039367
     79 H30         -1.1290     1.4000     1.8230 h1         1 6EU       0.098700
     80 H31         -1.7570     1.9010    -2.8050 hc         1 6EU       0.072700
     81 H32         -3.5050     2.0380    -2.7810 hc         1 6EU       0.072700
     82 HBL         -0.3610     3.7540    -1.7420 ha         1 6EU       0.116000
     83 HBN         -0.2050     6.1750    -1.3400 ha         1 6EU       0.111500
     84 HBP         -2.2430     7.5790    -1.3880 ha         1 6EU       0.111000
     85 HBO         -4.4390     6.5340    -1.8480 ha         1 6EU       0.111500
     86 HBM         -4.5940     4.1090    -2.2410 ha         1 6EU       0.116000
@<TRIPOS>BOND
     1     1     2 1   
     2     1    47 1   
     3     1    48 1   
     4     1    49 1   
     5     2     3 1   
     6     3     4 ar  
     7     3     5 ar  
     8     4     9 ar  
     9     4    50 1   
    10     5     6 1   
    11     5     7 ar  
    12     6    51 1   
    13     7     8 ar  
    14     7    52 1   
    15     8     9 ar  
    16     8    53 1   
    17     9    10 1   
    18    10    11 1   
    19    10    54 1   
    20    10    55 1   
    21    11    12 2   
    22    11    13 1   
    23    13    14 1   
    24    14    15 1   
    25    14    56 1   
    26    14    57 1   
    27    15    16 2   
    28    15    18 1   
    29    16    17 1   
    30    16    58 1   
    31    17    27 1   
    32    17    37 1   
    33    17    59 1   
    34    18    19 1   
    35    18    60 1   
    36    18    61 1   
    37    19    20 1   
    38    19    21 1   
    39    19    26 1   
    40    20    62 1   
    41    21    22 2   
    42    21    23 1   
    43    23    24 1   
    44    23    25 2   
    45    24    63 1   
    46    24    64 1   
    47    24    65 1   
    48    25    26 1   
    49    25    66 1   
    50    26    27 1   
    51    26    67 1   
    52    27    28 1   
    53    27    29 1   
    54    28    39 1   
    55    29    30 1   
    56    29    31 1   
    57    29    68 1   
    58    30    69 1   
    59    30    70 1   
    60    30    71 1   
    61    31    32 1   
    62    31    72 1   
    63    31    73 1   
    64    32    33 1   
    65    32    36 1   
    66    32    37 1   
    67    33    34 2   
    68    33    35 1   
    69    34    74 1   
    70    34    75 1   
    71    35    76 1   
    72    35    77 1   
    73    35    78 1   
    74    36    39 1   
    75    37    38 1   
    76    37    79 1   
    77    38    39 1   
    78    39    40 1   
    79    40    41 1   
    80    40    80 1   
    81    40    81 1   
    82    41    42 ar  
    83    41    46 ar  
    84    42    43 ar  
    85    42    82 1   
    86    43    44 ar  
    87    43    83 1   
    88    44    45 ar  
    89    44    84 1   
    90    45    46 ar  
    91    45    85 1   
    92    46    86 1   
@<TRIPOS>SUBSTRUCTURE
     1 6EU         1 TEMP              0 ****  ****    0 ROOT
