@<TRIPOS>MOLECULE
6EV
   21    22     1     0     0
SMALL
No Charge or Current Charge


@<TRIPOS>ATOM
      1 C10          3.5640     1.5810    -0.1270 c2         1 6EV      -0.222000
      2 C01         -3.4980     0.9570    -0.3230 c3         1 6EV      -0.031100
      3 C03         -1.1090    -0.1940     0.5820 cc         1 6EV      -0.200000
      4 S04         -1.8140    -1.8080     0.5400 ss         1 6EV       0.216000
      5 C05         -0.2220    -2.4970     0.2400 cc         1 6EV      -0.244000
      6 C06          0.7200    -1.5040     0.1550 cd         1 6EV      -0.028800
      7 C07          2.0920    -1.8140    -0.1090 cd         1 6EV      -0.140200
      8 C08          2.9980    -0.7700    -0.1940 cc         1 6EV      -0.158000
      9 C09          2.6050     0.6130    -0.0260 cc         1 6EV      -0.168200
     10 C21          1.1800     0.9840     0.2540 c          1 6EV       0.602900
     11 O22          0.8280     2.1500     0.4050 o          1 6EV      -0.529100
     12 C23          0.2530    -0.1810     0.3350 cd         1 6EV      -0.196600
     13 H1           4.6040     1.3220    -0.3300 ha         1 6EV       0.177000
     14 H2           3.3140     2.6360    -0.0070 ha         1 6EV       0.177000
     15 H4          -4.0690     0.1110     0.0790 h1         1 6EV       0.071033
     16 H5          -4.1420     1.8440    -0.3520 h1         1 6EV       0.071033
     17 H6          -3.1590     0.7220    -1.3390 h1         1 6EV       0.071033
     18 H7          -0.1090    -3.5680     0.1380 h4         1 6EV       0.154000
     19 H8           2.4150    -2.8430    -0.2420 ha         1 6EV       0.186000
     20 H9           4.0440    -0.9940    -0.3950 ha         1 6EV       0.179000
     21 S02         -2.0390     1.2940     0.7510 ss         1 6EV       0.013000
@<TRIPOS>BOND
     1     1     9 2   
     2     1    13 1   
     3     1    14 1   
     4     2    15 1   
     5     2    16 1   
     6     2    17 1   
     7     2    21 1   
     8     3     4 1   
     9     3    12 2   
    10     3    21 1   
    11     4     5 1   
    12     5     6 2   
    13     5    18 1   
    14     6     7 1   
    15     6    12 1   
    16     7     8 2   
    17     7    19 1   
    18     8     9 1   
    19     8    20 1   
    20     9    10 1   
    21    10    11 2   
    22    10    12 1   
@<TRIPOS>SUBSTRUCTURE
     1 6EV         1 TEMP              0 ****  ****    0 ROOT
