@<TRIPOS>MOLECULE
6EV
   21    22     1     0     0
SMALL
abcg2


@<TRIPOS>ATOM
      1 C10          3.6190     1.5590     0.0310 c2         1 6EV      -0.222000
      2 C01         -3.6410     0.8580    -0.0230 c3         1 6EV      -0.031100
      3 C03         -1.0540    -0.0360    -0.0050 cc         1 6EV      -0.200000
      4 S04         -1.7960    -1.5880    -0.0180 ss         1 6EV       0.216000
      5 C05         -0.2770    -2.4000    -0.0140 cc         1 6EV      -0.244000
      6 C06          0.7600    -1.5200    -0.0020 cd         1 6EV      -0.028800
      7 C07          2.1750    -1.8190     0.0050 cd         1 6EV      -0.140200
      8 C08          3.0730    -0.8220     0.0160 cc         1 6EV      -0.158000
      9 C09          2.6970     0.5870     0.0210 cc         1 6EV      -0.168200
     10 C21          1.2470     0.9550     0.0150 c          1 6EV       0.602900
     11 O22          0.8610     2.1140     0.0190 o          1 6EV      -0.529100
     12 C23          0.3200    -0.1590     0.0030 cd         1 6EV      -0.196600
     13 H1           4.6760     1.3290     0.0360 ha         1 6EV       0.177000
     14 H2           3.3440     2.6040     0.0360 ha         1 6EV       0.177000
     15 H4          -3.8760     0.2730     0.8650 h1         1 6EV       0.071033
     16 H5          -4.2640     1.7500    -0.0240 h1         1 6EV       0.071033
     17 H6          -3.8570     0.2850    -0.9240 h1         1 6EV       0.071033
     18 H7          -0.2420    -3.4790    -0.0210 h4         1 6EV       0.154000
     19 H8           2.4950    -2.8530     0.0010 ha         1 6EV       0.186000
     20 H9           4.1320    -1.0480     0.0210 ha         1 6EV       0.179000
     21 S02         -1.9350     1.4500    -0.0020 ss         1 6EV       0.013000
@<TRIPOS>BOND
     1     1     9 2   
     2     1    13 1   
     3     1    14 1   
     4     2    15 1   
     5     2    16 1   
     6     2    17 1   
     7     2    21 1   
     8     3     4 1   
     9     3    12 2   
    10     3    21 1   
    11     4     5 1   
    12     5     6 2   
    13     5    18 1   
    14     6     7 1   
    15     6    12 1   
    16     7     8 2   
    17     7    19 1   
    18     8     9 1   
    19     8    20 1   
    20     9    10 1   
    21    10    11 2   
    22    10    12 1   
@<TRIPOS>SUBSTRUCTURE
     1 6EV         1 TEMP              0 ****  ****    0 ROOT
