@<TRIPOS>MOLECULE
6EW
   60    62     1     0     0
SMALL
No Charge or Current Charge


@<TRIPOS>ATOM
      1 O1           1.9310    -1.0270    -2.8040 o          1 6EW      -0.532500
      2 S            2.6310    -1.1010    -1.5170 sy         1 6EW       1.171600
      3 O4           3.9900    -1.6430    -1.4090 o          1 6EW      -0.532500
      4 C16          2.5800     0.5050    -0.7030 ca         1 6EW      -0.280500
      5 C23          1.8030     1.5560    -1.2300 ca         1 6EW      -0.009000
      6 C21          1.7560     2.8060    -0.5780 ca         1 6EW      -0.103300
      7 C22          0.9330     3.9370    -1.1870 c3         1 6EW      -0.048800
      8 C19          2.4790     2.9960     0.6240 ca         1 6EW      -0.016300
      9 C20          2.4420     4.3280     1.3660 c3         1 6EW      -0.058800
     10 C18          3.2500     1.9380     1.1440 ca         1 6EW      -0.130000
     11 C17          3.3070     0.7010     0.4850 ca         1 6EW      -0.007000
     12 N1           1.6470    -2.0060    -0.4550 nh         1 6EW      -0.781300
     13 C1           2.0420    -3.4010    -0.1160 c3         1 6EW       0.161800
     14 C2           2.6020    -3.6090     1.3180 c3         1 6EW       0.292000
     15 F3           1.6860    -3.2670     2.2540 f          1 6EW      -0.112000
     16 F2           2.9310    -4.9060     1.5160 f          1 6EW      -0.112000
     17 F1           3.7120    -2.8640     1.5290 f          1 6EW      -0.112000
     18 C3           0.3180    -1.5810    -0.2980 ca         1 6EW       0.224000
     19 C15         -0.6990    -2.0970    -1.1180 ca         1 6EW      -0.088000
     20 C14         -2.0350    -1.6890    -0.9460 ca         1 6EW      -0.117000
     21 C4          -0.0150    -0.6380     0.6840 ca         1 6EW      -0.079000
     22 C5          -1.3420    -0.2150     0.8380 ca         1 6EW       0.076100
     23 C11         -2.3880    -0.7890     0.0850 ca         1 6EW      -0.036000
     24 N2          -3.7320    -0.2560     0.1700 n          1 6EW      -0.224400
     25 C12         -4.8600    -1.2200     0.0540 c3         1 6EW       0.102000
     26 C13         -4.9690    -2.1620     1.2670 c3         1 6EW      -0.115100
     27 O2          -1.6250     0.7380     1.7770 os         1 6EW      -0.345100
     28 C6          -1.8180     2.0990     1.3680 c3         1 6EW       0.164600
     29 C7          -2.9710     2.2170     0.3230 c3         1 6EW      -0.155000
     30 C8          -2.4230     2.1590    -1.1390 c3         1 6EW      -0.082100
     31 C9          -3.6270     3.6230     0.5010 c3         1 6EW      -0.082100
     32 C10         -4.0340     1.0870     0.5520 c          1 6EW       0.582000
     33 O3          -5.1540     1.3730     0.9680 o          1 6EW      -0.537000
     34 H1           1.2370     1.4070    -2.1470 ha         1 6EW       0.139000
     35 H2           0.1510     4.2760    -0.4980 hc         1 6EW       0.044700
     36 H3           1.5660     4.7990    -1.4270 hc         1 6EW       0.044700
     37 H4           0.4410     3.6290    -2.1180 hc         1 6EW       0.044700
     38 H5           1.4180     4.5860     1.6620 hc         1 6EW       0.049700
     39 H6           3.0490     4.3030     2.2790 hc         1 6EW       0.049700
     40 H7           2.8280     5.1400     0.7400 hc         1 6EW       0.049700
     41 H8           3.8110     2.0730     2.0650 ha         1 6EW       0.122000
     42 H9           3.9050    -0.1060     0.9050 ha         1 6EW       0.140000
     43 H10          1.1710    -4.0600    -0.2250 h1         1 6EW       0.092200
     44 H11          2.7840    -3.7820    -0.8310 h1         1 6EW       0.092200
     45 H12         -0.4480    -2.8060    -1.9010 ha         1 6EW       0.130000
     46 H13         -2.7840    -2.0810    -1.6280 ha         1 6EW       0.130000
     47 H14          0.7590    -0.2220     1.3190 ha         1 6EW       0.145000
     48 H15         -5.8100    -0.6860    -0.0690 h1         1 6EW       0.058200
     49 H16         -4.7390    -1.8220    -0.8540 h1         1 6EW       0.058200
     50 H17         -5.1200    -1.5870     2.1880 hc         1 6EW       0.046367
     51 H18         -5.8180    -2.8450     1.1440 hc         1 6EW       0.046367
     52 H19         -4.0580    -2.7620     1.3770 hc         1 6EW       0.046367
     53 H20         -2.0660     2.6950     2.2560 h1         1 6EW       0.061200
     54 H21         -0.8900     2.5140     0.9520 h1         1 6EW       0.061200
     55 H22         -1.7600     1.3070    -1.3170 hc         1 6EW       0.045367
     56 H23         -3.2500     2.0980    -1.8580 hc         1 6EW       0.045367
     57 H24         -1.8500     3.0620    -1.3760 hc         1 6EW       0.045367
     58 H25         -2.8910     4.4230     0.3530 hc         1 6EW       0.045367
     59 H26         -4.4370     3.7740    -0.2240 hc         1 6EW       0.045367
     60 H27         -4.0480     3.7430     1.5070 hc         1 6EW       0.045367
@<TRIPOS>BOND
     1     1     2 2   
     2     2     3 2   
     3     2     4 1   
     4     2    12 1   
     5     4     5 ar  
     6     4    11 ar  
     7     5     6 ar  
     8     5    34 1   
     9     6     7 1   
    10     6     8 ar  
    11     7    35 1   
    12     7    36 1   
    13     7    37 1   
    14     8     9 1   
    15     8    10 ar  
    16     9    38 1   
    17     9    39 1   
    18     9    40 1   
    19    10    11 ar  
    20    10    41 1   
    21    11    42 1   
    22    12    13 1   
    23    12    18 1   
    24    13    14 1   
    25    13    43 1   
    26    13    44 1   
    27    14    15 1   
    28    14    16 1   
    29    14    17 1   
    30    18    19 ar  
    31    18    21 ar  
    32    19    20 ar  
    33    19    45 1   
    34    20    23 ar  
    35    20    46 1   
    36    21    22 ar  
    37    21    47 1   
    38    22    23 ar  
    39    22    27 1   
    40    23    24 1   
    41    24    25 1   
    42    24    32 1   
    43    25    26 1   
    44    25    48 1   
    45    25    49 1   
    46    26    50 1   
    47    26    51 1   
    48    26    52 1   
    49    27    28 1   
    50    28    29 1   
    51    28    53 1   
    52    28    54 1   
    53    29    30 1   
    54    29    31 1   
    55    29    32 1   
    56    30    55 1   
    57    30    56 1   
    58    30    57 1   
    59    31    58 1   
    60    31    59 1   
    61    31    60 1   
    62    32    33 2   
@<TRIPOS>SUBSTRUCTURE
     1 6EW         1 TEMP              0 ****  ****    0 ROOT
