@<TRIPOS>MOLECULE
6EW
   60    62     1     0     0
SMALL
abcg2


@<TRIPOS>ATOM
      1 O1           1.9010    -0.8500    -2.7770 o          1 6EW      -0.532500
      2 S            2.5660    -1.0130    -1.4950 sy         1 6EW       1.171600
      3 O4           3.9040    -1.5820    -1.4640 o          1 6EW      -0.532500
      4 C16          2.5540     0.5400    -0.6620 ca         1 6EW      -0.280500
      5 C23          1.8400     1.6040    -1.1920 ca         1 6EW      -0.009000
      6 C21          1.7900     2.8180    -0.5170 ca         1 6EW      -0.103300
      7 C22          1.0440     3.9770    -1.1060 c3         1 6EW      -0.048800
      8 C19          2.4550     2.9440     0.7110 ca         1 6EW      -0.016300
      9 C20          2.3970     4.2290     1.4770 c3         1 6EW      -0.058800
     10 C18          3.1770     1.8630     1.2130 ca         1 6EW      -0.130000
     11 C17          3.2390     0.6580     0.5370 ca         1 6EW      -0.007000
     12 N1           1.6360    -1.9580    -0.4740 nh         1 6EW      -0.781300
     13 C1           1.9980    -3.3440    -0.2550 c3         1 6EW       0.161800
     14 C2           2.4730    -3.5460     1.1670 c3         1 6EW       0.292000
     15 F3           1.5530    -3.1630     2.0610 f          1 6EW      -0.112000
     16 F2           2.7430    -4.8360     1.3970 f          1 6EW      -0.112000
     17 F1           3.5860    -2.8520     1.4350 f          1 6EW      -0.112000
     18 C3           0.2740    -1.5650    -0.3350 ca         1 6EW       0.224000
     19 C15         -0.7040    -2.0490    -1.1960 ca         1 6EW      -0.088000
     20 C14         -2.0160    -1.6340    -1.0560 ca         1 6EW      -0.117000
     21 C4          -0.0690    -0.6560     0.6560 ca         1 6EW      -0.079000
     22 C5          -1.3800    -0.2330     0.7820 ca         1 6EW       0.076100
     23 C11         -2.3700    -0.7120    -0.0750 ca         1 6EW      -0.036000
     24 N2          -3.7010    -0.2810     0.0740 n          1 6EW      -0.224400
     25 C12         -4.7230    -1.3210     0.2250 c3         1 6EW       0.102000
     26 C13         -4.7920    -1.8570     1.6450 c3         1 6EW      -0.115100
     27 O2          -1.7120     0.6550     1.7510 os         1 6EW      -0.345100
     28 C6          -1.9190     1.9820     1.2890 c3         1 6EW       0.164600
     29 C7          -2.9850     2.1090     0.1800 c3         1 6EW      -0.155000
     30 C8          -2.3790     2.0740    -1.2350 c3         1 6EW      -0.082100
     31 C9          -3.6410     3.4800     0.3580 c3         1 6EW      -0.082100
     32 C10         -4.0450     1.0120     0.3590 c          1 6EW       0.582000
     33 O3          -5.1830     1.2880     0.6910 o          1 6EW      -0.537000
     34 H1           1.3140     1.4960    -2.1320 ha         1 6EW       0.139000
     35 H2           0.2310     4.3110    -0.4580 hc         1 6EW       0.044700
     36 H3           1.7000     4.8380    -1.2500 hc         1 6EW       0.044700
     37 H4           0.6110     3.7200    -2.0710 hc         1 6EW       0.044700
     38 H5           1.3670     4.4980     1.7210 hc         1 6EW       0.049700
     39 H6           2.9550     4.1620     2.4090 hc         1 6EW       0.049700
     40 H7           2.8100     5.0560     0.8970 hc         1 6EW       0.049700
     41 H8           3.7010     1.9660     2.1550 ha         1 6EW       0.122000
     42 H9           3.7960    -0.1700     0.9550 ha         1 6EW       0.140000
     43 H10          1.1370    -3.9900    -0.4320 h1         1 6EW       0.092200
     44 H11          2.7820    -3.6740    -0.9370 h1         1 6EW       0.092200
     45 H12         -0.4460    -2.7460    -1.9820 ha         1 6EW       0.130000
     46 H13         -2.7640    -2.0090    -1.7420 ha         1 6EW       0.130000
     47 H14          0.6800    -0.2760     1.3390 ha         1 6EW       0.145000
     48 H15         -5.6830    -0.9140    -0.0830 h1         1 6EW       0.058200
     49 H16         -4.4910    -2.1260    -0.4700 h1         1 6EW       0.058200
     50 H17         -5.0670    -1.0730     2.3500 hc         1 6EW       0.046367
     51 H18         -5.5390    -2.6480     1.7100 hc         1 6EW       0.046367
     52 H19         -3.8340    -2.2770     1.9560 hc         1 6EW       0.046367
     53 H20         -2.2380     2.5360     2.1720 h1         1 6EW       0.061200
     54 H21         -0.9730     2.4170     0.9390 h1         1 6EW       0.061200
     55 H22         -1.6710     1.2670    -1.4070 hc         1 6EW       0.045367
     56 H23         -3.1620     2.0010    -1.9900 hc         1 6EW       0.045367
     57 H24         -1.8450     3.0080    -1.4140 hc         1 6EW       0.045367
     58 H25         -2.8730     4.2530     0.3090 hc         1 6EW       0.045367
     59 H26         -4.3630     3.6830    -0.4330 hc         1 6EW       0.045367
     60 H27         -4.1470     3.5730     1.3180 hc         1 6EW       0.045367
@<TRIPOS>BOND
     1     1     2 2   
     2     2     3 2   
     3     2     4 1   
     4     2    12 1   
     5     4     5 ar  
     6     4    11 ar  
     7     5     6 ar  
     8     5    34 1   
     9     6     7 1   
    10     6     8 ar  
    11     7    35 1   
    12     7    36 1   
    13     7    37 1   
    14     8     9 1   
    15     8    10 ar  
    16     9    38 1   
    17     9    39 1   
    18     9    40 1   
    19    10    11 ar  
    20    10    41 1   
    21    11    42 1   
    22    12    13 1   
    23    12    18 1   
    24    13    14 1   
    25    13    43 1   
    26    13    44 1   
    27    14    15 1   
    28    14    16 1   
    29    14    17 1   
    30    18    19 ar  
    31    18    21 ar  
    32    19    20 ar  
    33    19    45 1   
    34    20    23 ar  
    35    20    46 1   
    36    21    22 ar  
    37    21    47 1   
    38    22    23 ar  
    39    22    27 1   
    40    23    24 1   
    41    24    25 1   
    42    24    32 1   
    43    25    26 1   
    44    25    48 1   
    45    25    49 1   
    46    26    50 1   
    47    26    51 1   
    48    26    52 1   
    49    27    28 1   
    50    28    29 1   
    51    28    53 1   
    52    28    54 1   
    53    29    30 1   
    54    29    31 1   
    55    29    32 1   
    56    30    55 1   
    57    30    56 1   
    58    30    57 1   
    59    31    58 1   
    60    31    59 1   
    61    31    60 1   
    62    32    33 2   
@<TRIPOS>SUBSTRUCTURE
     1 6EW         1 TEMP              0 ****  ****    0 ROOT
