@<TRIPOS>MOLECULE
6EX
   14    14     1     0     0
SMALL
No Charge or Current Charge


@<TRIPOS>ATOM
      1 CAA          2.1620     1.1480     0.0120 c3         1 6EX      -0.181100
      2 CAG          1.3480    -0.1480     0.0020 c          1 6EX       0.582900
      3 OAB          1.9150    -1.2340     0.0050 o          1 6EX      -0.516100
      4 NAH         -0.0580    -0.0600    -0.0110 n          1 6EX      -0.181300
      5 CAD         -0.9580    -1.0890    -0.0220 cc         1 6EX      -0.186000
      6 CAC         -2.2290    -0.5730    -0.0330 cd         1 6EX       0.228900
      7 NAF         -2.1310     0.8260    -0.0290 nd         1 6EX      -0.657000
      8 CAE         -0.8200     1.0760    -0.0160 cc         1 6EX       0.411400
      9 H1           1.8530     1.7600     0.8670 hc         1 6EX       0.074700
     10 H2           3.2420     0.9630     0.0220 hc         1 6EX       0.074700
     11 H3           1.8690     1.7640    -0.8450 hc         1 6EX       0.074700
     12 H4          -0.5920    -2.1090    -0.0210 h4         1 6EX       0.175000
     13 H5          -3.1780    -1.0970    -0.0430 h4         1 6EX       0.042100
     14 H6          -0.3600     2.0570    -0.0100 h5         1 6EX       0.056100
@<TRIPOS>BOND
     1     1     2 1   
     2     1     9 1   
     3     1    10 1   
     4     1    11 1   
     5     2     3 2   
     6     2     4 1   
     7     4     5 1   
     8     4     8 1   
     9     5     6 2   
    10     5    12 1   
    11     6     7 1   
    12     6    13 1   
    13     7     8 2   
    14     8    14 1   
@<TRIPOS>SUBSTRUCTURE
     1 6EX         1 TEMP              0 ****  ****    0 ROOT
