@<TRIPOS>MOLECULE
6EX
   14    14     1     0     0
SMALL
abcg2


@<TRIPOS>ATOM
      1 CAA          2.0990     1.1500     0.0120 c3         1 6EX      -0.181100
      2 CAG          1.3530    -0.1480     0.0030 c          1 6EX       0.582900
      3 OAB          1.8690    -1.2340     0.0110 o          1 6EX      -0.516100
      4 NAH         -0.0490    -0.0490    -0.0140 n          1 6EX      -0.181300
      5 CAD         -0.9300    -1.1130    -0.0220 cc         1 6EX      -0.186000
      6 CAC         -2.1650    -0.5550    -0.0320 cd         1 6EX       0.228900
      7 NAF         -2.0760     0.8200    -0.0290 nd         1 6EX      -0.657000
      8 CAE         -0.8100     1.0900    -0.0180 cc         1 6EX       0.411400
      9 H1           1.8470     1.7390     0.8940 hc         1 6EX       0.074700
     10 H2           3.1670     0.9540     0.0150 hc         1 6EX       0.074700
     11 H3           1.8550     1.7500    -0.8650 hc         1 6EX       0.074700
     12 H4          -0.6040    -2.1380    -0.0230 h4         1 6EX       0.175000
     13 H5          -3.1180    -1.0600    -0.0410 h4         1 6EX       0.042100
     14 H6          -0.3780     2.0780    -0.0130 h5         1 6EX       0.056100
@<TRIPOS>BOND
     1     1     2 1   
     2     1     9 1   
     3     1    10 1   
     4     1    11 1   
     5     2     3 2   
     6     2     4 1   
     7     4     5 1   
     8     4     8 1   
     9     5     6 2   
    10     5    12 1   
    11     6     7 1   
    12     6    13 1   
    13     7     8 2   
    14     8    14 1   
@<TRIPOS>SUBSTRUCTURE
     1 6EX         1 TEMP              0 ****  ****    0 ROOT
