@<TRIPOS>MOLECULE
6EY
   44    47     1     0     0
SMALL
No Charge or Current Charge


@<TRIPOS>ATOM
      1 C4          -0.8020    -1.5100     0.1950 ce         1 6EY      -0.277600
      2 C6          -3.2290    -0.1350     0.4730 ca         1 6EY      -0.107000
      3 C11         -4.5100     0.0430    -0.0910 ca         1 6EY       0.125000
      4 C7          -2.5010     0.9900     0.9070 ca         1 6EY      -0.104000
      5 C8          -3.0410     2.2800     0.7730 ca         1 6EY      -0.099000
      6 C9          -4.3150     2.4530     0.2070 ca         1 6EY      -0.109000
      7 C10         -5.0490     1.3340    -0.2240 ca         1 6EY      -0.093000
      8 C13          0.1850    -1.7170     1.3000 c          1 6EY       0.598200
      9 C3           1.0960    -1.0550    -1.3610 c6         1 6EY      -0.053200
     10 C2          -0.3770    -1.1820    -1.0390 c2         1 6EY       0.226900
     11 S5          -2.5170    -1.7720     0.6390 ss         1 6EY      -0.011600
     12 Cl          -5.4500    -1.3370    -0.6550 cl         1 6EY      -0.189000
     13 N14          1.4730    -1.3320     1.0180 ns         1 6EY      -0.510900
     14 C15          1.8690    -0.5030    -0.1300 c6         1 6EY       0.262000
     15 C16          1.4590     0.9550     0.1100 cc         1 6EY      -0.138300
     16 C17          1.3150     1.9100    -0.8720 cd         1 6EY      -0.234000
     17 S18          0.8240     3.4800    -0.2120 ss         1 6EY       0.219000
     18 C19          0.8630     2.8100     1.4230 cd         1 6EY      -0.246000
     19 C20          1.2130     1.4860     1.4110 cc         1 6EY      -0.121000
     20 C21          3.4140    -0.5790    -0.2660 ca         1 6EY      -0.040300
     21 C22          4.0620    -0.9370    -1.4750 ca         1 6EY      -0.138000
     22 C23          5.4640    -0.9850    -1.5520 ca         1 6EY      -0.072000
     23 C24          6.2430    -0.6690    -0.4280 ca         1 6EY      -0.135000
     24 C25          5.6200    -0.3010     0.7700 ca         1 6EY       0.145100
     25 O26          6.3800     0.0140     1.8560 oh         1 6EY      -0.530100
     26 C27          4.2190    -0.2540     0.8520 ca         1 6EY      -0.198000
     27 O28         -0.0980    -2.1930     2.3870 o          1 6EY      -0.535000
     28 H1          -1.5170     0.8670     1.3520 ha         1 6EY       0.127000
     29 H2          -2.4720     3.1440     1.1080 ha         1 6EY       0.114000
     30 H3          -4.7340     3.4520     0.1030 ha         1 6EY       0.118000
     31 H4          -6.0350     1.4670    -0.6620 ha         1 6EY       0.129000
     32 H5           1.4690    -2.0560    -1.6130 hc         1 6EY       0.086700
     33 H6           1.2500    -0.4310    -2.2500 hc         1 6EY       0.086700
     34 H7          -2.1060    -1.0910    -1.7390 ho         1 6EY       0.501000
     35 H8           2.1600    -1.5070     1.7380 hn         1 6EY       0.319500
     36 H9           1.4600     1.8100    -1.9400 h4         1 6EY       0.153000
     37 H10          0.6270     3.4360     2.2750 h4         1 6EY       0.155000
     38 H11          1.2970     0.8940     2.3180 ha         1 6EY       0.141000
     39 H12          3.4970    -1.1780    -2.3710 ha         1 6EY       0.115000
     40 H13          5.9480    -1.2640    -2.4860 ha         1 6EY       0.118000
     41 H14          7.3280    -0.7050    -0.4890 ha         1 6EY       0.133000
     42 H15          5.7810     0.2550     2.5940 ho         1 6EY       0.467000
     43 H16          3.7490     0.0450     1.7850 ha         1 6EY       0.116000
     44 O1          -1.1950    -0.9980    -2.0850 oh         1 6EY      -0.512100
@<TRIPOS>BOND
     1     1     8 1   
     2     1    10 2   
     3     1    11 1   
     4     2     3 ar  
     5     2     4 ar  
     6     2    11 1   
     7     3     7 ar  
     8     3    12 1   
     9     4     5 ar  
    10     4    28 1   
    11     5     6 ar  
    12     5    29 1   
    13     6     7 ar  
    14     6    30 1   
    15     7    31 1   
    16     8    13 1   
    17     8    27 2   
    18     9    10 1   
    19     9    14 1   
    20     9    32 1   
    21     9    33 1   
    22    10    44 1   
    23    13    14 1   
    24    13    35 1   
    25    14    15 1   
    26    14    20 1   
    27    15    16 2   
    28    15    19 1   
    29    16    17 1   
    30    16    36 1   
    31    17    18 1   
    32    18    19 2   
    33    18    37 1   
    34    19    38 1   
    35    20    21 ar  
    36    20    26 ar  
    37    21    22 ar  
    38    21    39 1   
    39    22    23 ar  
    40    22    40 1   
    41    23    24 ar  
    42    23    41 1   
    43    24    25 1   
    44    24    26 ar  
    45    25    42 1   
    46    26    43 1   
    47    34    44 1   
@<TRIPOS>SUBSTRUCTURE
     1 6EY         1 TEMP              0 ****  ****    0 ROOT
