@<TRIPOS>MOLECULE
6EY
   44    47     1     0     0
SMALL
abcg2


@<TRIPOS>ATOM
      1 C4          -0.7890    -1.4060    -0.2420 ce         1 6EY      -0.277600
      2 C6          -3.1570    -0.0630     0.2330 ca         1 6EY      -0.107000
      3 C11         -4.5250     0.0540     0.4710 ca         1 6EY       0.125000
      4 C7          -2.3760     1.0860     0.2930 ca         1 6EY      -0.104000
      5 C8          -2.9490     2.3110     0.5950 ca         1 6EY      -0.099000
      6 C9          -4.3120     2.4110     0.8330 ca         1 6EY      -0.109000
      7 C10         -5.1060     1.2760     0.7690 ca         1 6EY      -0.093000
      8 C13          0.0240    -1.6400     0.9610 c          1 6EY       0.598200
      9 C3           1.2890    -1.0720    -1.5430 c6         1 6EY      -0.053200
     10 C2          -0.1960    -1.1640    -1.4370 c2         1 6EY       0.226900
     11 S5          -2.5170    -1.6700    -0.1590 ss         1 6EY      -0.011600
     12 CL          -5.5250    -1.3590     0.3880 cl         1 6EY      -0.189000
     13 N14          1.3470    -1.3630     0.8300 ns         1 6EY      -0.510900
     14 C15          1.8730    -0.5280    -0.2420 c6         1 6EY       0.262000
     15 C16          1.4470     0.9240    -0.0430 cc         1 6EY      -0.138300
     16 C17          1.3260     1.8450    -1.0430 cd         1 6EY      -0.234000
     17 S18          0.8560     3.3800    -0.4470 ss         1 6EY       0.219000
     18 C19          0.8170     2.8060     1.1650 cd         1 6EY      -0.246000
     19 C20          1.1500     1.4900     1.2330 cc         1 6EY      -0.121000
     20 C21          3.3970    -0.5990    -0.2090 ca         1 6EY      -0.040300
     21 C22          4.1470    -1.0090    -1.3020 ca         1 6EY      -0.138000
     22 C23          5.5360    -1.0400    -1.2160 ca         1 6EY      -0.072000
     23 C24          6.1900    -0.6740    -0.0560 ca         1 6EY      -0.135000
     24 C25          5.4400    -0.2600     1.0450 ca         1 6EY       0.145100
     25 O26          6.1070     0.0940     2.1590 oh         1 6EY      -0.530100
     26 C27          4.0540    -0.2190     0.9610 ca         1 6EY      -0.198000
     27 O28         -0.4480    -2.0870     1.9940 o          1 6EY      -0.535000
     28 H1          -1.3120     1.0230     0.1100 ha         1 6EY       0.127000
     29 H2          -2.3200     3.1900     0.6380 ha         1 6EY       0.114000
     30 H3          -4.7620     3.3660     1.0670 ha         1 6EY       0.118000
     31 H4          -6.1710     1.3370     0.9480 ha         1 6EY       0.129000
     32 H5           1.6720    -2.0790    -1.7380 hc         1 6EY       0.086700
     33 H6           1.5630    -0.4570    -2.4000 hc         1 6EY       0.086700
     34 H7          -1.7870    -1.1840    -2.4530 ho         1 6EY       0.501000
     35 H8           1.9130    -1.4940     1.6570 hn         1 6EY       0.319500
     36 H9           1.4990     1.7190    -2.1010 h4         1 6EY       0.153000
     37 H10          0.5430     3.4630     1.9760 h4         1 6EY       0.155000
     38 H11          1.1630     0.9380     2.1630 ha         1 6EY       0.141000
     39 H12          3.6810    -1.3070    -2.2300 ha         1 6EY       0.115000
     40 H13          6.1130    -1.3590    -2.0740 ha         1 6EY       0.118000
     41 H14          7.2700    -0.7020     0.0060 ha         1 6EY       0.133000
     42 H15          5.4910     0.3530     2.8540 ho         1 6EY       0.467000
     43 H16          3.4920     0.1320     1.8210 ha         1 6EY       0.116000
     44 O1          -0.8330    -1.0320    -2.5790 oh         1 6EY      -0.512100
@<TRIPOS>BOND
     1     1     8 1   
     2     1    10 2   
     3     1    11 1   
     4     2     3 ar  
     5     2     4 ar  
     6     2    11 1   
     7     3     7 ar  
     8     3    12 1   
     9     4     5 ar  
    10     4    28 1   
    11     5     6 ar  
    12     5    29 1   
    13     6     7 ar  
    14     6    30 1   
    15     7    31 1   
    16     8    13 1   
    17     8    27 2   
    18     9    10 1   
    19     9    14 1   
    20     9    32 1   
    21     9    33 1   
    22    10    44 1   
    23    13    14 1   
    24    13    35 1   
    25    14    15 1   
    26    14    20 1   
    27    15    16 2   
    28    15    19 1   
    29    16    17 1   
    30    16    36 1   
    31    17    18 1   
    32    18    19 2   
    33    18    37 1   
    34    19    38 1   
    35    20    21 ar  
    36    20    26 ar  
    37    21    22 ar  
    38    21    39 1   
    39    22    23 ar  
    40    22    40 1   
    41    23    24 ar  
    42    23    41 1   
    43    24    25 1   
    44    24    26 ar  
    45    25    42 1   
    46    26    43 1   
    47    34    44 1   
@<TRIPOS>SUBSTRUCTURE
     1 6EY         1 TEMP              0 ****  ****    0 ROOT
