@<TRIPOS>MOLECULE
6EZ
   46    49     1     0     0
SMALL
No Charge or Current Charge


@<TRIPOS>ATOM
      1 C2          -5.9900    -1.6320    -0.6390 ca         1 6EZ       0.169000
      2 C3          -4.7840    -1.8360    -1.3250 ca         1 6EZ      -0.151000
      3 C4          -3.7010    -0.9640    -1.1130 ca         1 6EZ      -0.077000
      4 C5          -3.8060     0.1280    -0.2120 cp         1 6EZ      -0.037000
      5 C6          -5.0390     0.3120     0.4680 ca         1 6EZ      -0.077000
      6 C7          -6.1210    -0.5610     0.2570 ca         1 6EZ      -0.151000
      7 C9          -1.3190     0.5840     0.0220 ca         1 6EZ      -0.058000
      8 C10         -0.2240     1.4520     0.2340 ca         1 6EZ      -0.093000
      9 C12          1.6590    -0.2920     0.4080 c          1 6EZ       0.602100
     10 O13          0.9950    -1.2710     0.7270 o          1 6EZ      -0.577100
     11 C15          3.9690    -0.7390     1.5130 c6         1 6EZ      -0.092900
     12 C16          5.4660    -1.0520     1.2170 c5         1 6EZ       0.152800
     13 C17          6.2400     0.0850     0.4820 c5         1 6EZ      -0.106900
     14 C18          6.0230    -0.2470    -1.0370 c5         1 6EZ      -0.106900
     15 C19          5.1480    -1.5370    -1.0060 c5         1 6EZ       0.152800
     16 C20          3.6110    -1.2850    -0.9910 c6         1 6EZ      -0.092900
     17 C22         -0.4720     2.8320     0.4290 ca         1 6EZ       0.264000
     18 C24         -1.7870     3.3150     0.4210 ca         1 6EZ      -0.167000
     19 F1          -7.0290    -2.4700    -0.8420 f          1 6EZ      -0.180000
     20 C8          -2.6550     1.0590     0.0150 cp         1 6EZ      -0.062000
     21 C14          3.1900    -0.3950     0.2130 c6         1 6EZ      -0.139700
     22 O21          5.5310    -2.1190     0.2530 os         1 6EZ      -0.438000
     23 N23          0.5510     3.7240     0.6450 nv         1 6EZ      -1.070000
     24 C25         -2.8670     2.4420     0.2200 ca         1 6EZ      -0.069000
     25 H1          -4.6900    -2.6660    -2.0200 ha         1 6EZ       0.131000
     26 H2          -2.7780    -1.1280    -1.6640 ha         1 6EZ       0.117500
     27 H3          -5.1530     1.1300     1.1750 ha         1 6EZ       0.117500
     28 H4          -7.0570    -0.4110     0.7870 ha         1 6EZ       0.131000
     29 H5          -1.1490    -0.4750    -0.1450 ha         1 6EZ       0.131000
     30 H7           3.8930     0.0870     2.2340 hc         1 6EZ       0.060700
     31 H8           5.9650    -1.3570     2.1480 h1         1 6EZ       0.081700
     32 H9           5.8700     1.0810     0.7530 hc         1 6EZ       0.051450
     33 H10          7.3050     0.0610     0.7400 hc         1 6EZ       0.051450
     34 H11          5.5360     0.5720    -1.5810 hc         1 6EZ       0.051450
     35 H12          6.9790    -0.4360    -1.5380 hc         1 6EZ       0.051450
     36 H13          5.3950    -2.2240    -1.8280 h1         1 6EZ       0.081700
     37 H14          3.2950    -0.8230    -1.9360 hc         1 6EZ       0.060700
     38 H15          3.0980    -2.2550    -0.9340 hc         1 6EZ       0.060700
     39 H16         -1.9800     4.3740     0.5710 ha         1 6EZ       0.114000
     40 H18          3.5060     0.6220    -0.0560 hc         1 6EZ       0.057700
     41 H19          0.3220     4.6800     0.9110 hn         1 6EZ       0.445500
     42 H20          1.4660     3.3840     0.9290 hn         1 6EZ       0.445500
     43 H21         -3.8770     2.8470     0.2070 ha         1 6EZ       0.115000
     44 N11          1.1220     0.9760     0.2140 ns         1 6EZ      -0.170000
     45 H6           3.5180    -1.6160     1.9980 hc         1 6EZ       0.060700
     46 H17          1.8060     1.6850    -0.0150 hn         1 6EZ       0.156000
@<TRIPOS>BOND
     1     1     2 ar  
     2     1     6 ar  
     3     1    19 1   
     4     2     3 ar  
     5     2    25 1   
     6     3     4 ar  
     7     3    26 1   
     8     4     5 ar  
     9     4    20 1   
    10     5     6 ar  
    11     5    27 1   
    12     6    28 1   
    13     7     8 ar  
    14     7    20 ar  
    15     7    29 1   
    16     8    17 ar  
    17     8    44 1   
    18     9    10 2   
    19     9    21 1   
    20     9    44 1   
    21    11    12 1   
    22    11    21 1   
    23    11    30 1   
    24    11    45 1   
    25    12    13 1   
    26    12    22 1   
    27    12    31 1   
    28    13    14 1   
    29    13    32 1   
    30    13    33 1   
    31    14    15 1   
    32    14    34 1   
    33    14    35 1   
    34    15    16 1   
    35    15    22 1   
    36    15    36 1   
    37    16    21 1   
    38    16    37 1   
    39    16    38 1   
    40    17    18 ar  
    41    17    23 1   
    42    18    24 ar  
    43    18    39 1   
    44    20    24 ar  
    45    21    40 1   
    46    23    41 1   
    47    23    42 1   
    48    24    43 1   
    49    44    46 1   
@<TRIPOS>SUBSTRUCTURE
     1 6EZ         1 TEMP              0 ****  ****    0 ROOT
