@<TRIPOS>MOLECULE
6EZ
   46    49     1     0     0
SMALL
abcg2


@<TRIPOS>ATOM
      1 C2          -5.7360    -1.7850    -0.3120 ca         1 6EZ       0.169000
      2 C3          -4.5860    -2.0290    -1.0360 ca         1 6EZ      -0.151000
      3 C4          -3.5510    -1.1090    -0.9730 ca         1 6EZ      -0.077000
      4 C5          -3.6510     0.0450    -0.1920 cp         1 6EZ      -0.037000
      5 C6          -4.8310     0.2510     0.5250 ca         1 6EZ      -0.077000
      6 C7          -5.8790    -0.6560     0.4700 ca         1 6EZ      -0.151000
      7 C9          -1.2160     0.5960    -0.1330 ca         1 6EZ      -0.058000
      8 C10         -0.1670     1.4980    -0.0520 ca         1 6EZ      -0.093000
      9 C12          1.7080     0.1000     0.7100 c          1 6EZ       0.602100
     10 O13          1.0570    -0.4960     1.5480 o          1 6EZ      -0.577100
     11 C15          3.7490    -1.2200     1.4060 c6         1 6EZ      -0.092900
     12 C16          5.1580    -1.6190     0.9770 c5         1 6EZ       0.152800
     13 C17          6.1050    -0.4170     0.8460 c5         1 6EZ      -0.106900
     14 C18          5.9220     0.0100    -0.6230 c5         1 6EZ      -0.106900
     15 C19          4.9060    -1.0130    -1.1570 c5         1 6EZ       0.152800
     16 C20          3.4650    -0.5370    -1.0030 c6         1 6EZ      -0.092900
     17 C22         -0.4190     2.8770     0.0410 ca         1 6EZ       0.264000
     18 C24         -1.7510     3.3000     0.0220 ca         1 6EZ      -0.167000
     19 F1          -6.7440    -2.6720    -0.3680 f          1 6EZ      -0.180000
     20 C8          -2.5440     1.0180    -0.1230 cp         1 6EZ      -0.062000
     21 C14          3.1850    -0.1580     0.4620 c6         1 6EZ      -0.139700
     22 O21          5.1090    -2.1540    -0.3390 os         1 6EZ      -0.438000
     23 N23          0.6230     3.7800     0.0840 nv         1 6EZ      -1.070000
     24 C25         -2.7890     2.3900    -0.0520 ca         1 6EZ      -0.069000
     25 H1          -4.5010    -2.9170    -1.6500 ha         1 6EZ       0.131000
     26 H2          -2.6590    -1.2910    -1.5580 ha         1 6EZ       0.117500
     27 H3          -4.9330     1.1240     1.1570 ha         1 6EZ       0.117500
     28 H4          -6.7860    -0.4900     1.0370 ha         1 6EZ       0.131000
     29 H5          -0.9910    -0.4600    -0.1990 ha         1 6EZ       0.131000
     30 H7           3.7700    -0.8480     2.4330 hc         1 6EZ       0.060700
     31 H8           5.5480    -2.3920     1.6420 h1         1 6EZ       0.081700
     32 H9           5.8620     0.3770     1.5540 hc         1 6EZ       0.051450
     33 H10          7.1340    -0.7180     1.0420 hc         1 6EZ       0.051450
     34 H11          5.5660     1.0360    -0.7280 hc         1 6EZ       0.051450
     35 H12          6.8600    -0.0600    -1.1750 hc         1 6EZ       0.051450
     36 H13          5.0980    -1.2980    -2.1930 h1         1 6EZ       0.081700
     37 H14          3.2960     0.3090    -1.6730 hc         1 6EZ       0.060700
     38 H15          2.7900    -1.3370    -1.3230 hc         1 6EZ       0.060700
     39 H16         -1.9680     4.3590     0.0770 ha         1 6EZ       0.114000
     40 H18          3.6960     0.7920     0.6650 hc         1 6EZ       0.057700
     41 H19          0.3600     4.7140     0.3530 hn         1 6EZ       0.445500
     42 H20          1.4430     3.4770     0.5880 hn         1 6EZ       0.445500
     43 H21         -3.8070     2.7610    -0.0700 ha         1 6EZ       0.115000
     44 N11          1.1750     1.0670    -0.0800 ns         1 6EZ      -0.170000
     45 H6           3.1150    -2.1090     1.4010 hc         1 6EZ       0.060700
     46 H17          1.7920     1.5460    -0.7200 hn         1 6EZ       0.156000
@<TRIPOS>BOND
     1     1     2 ar  
     2     1     6 ar  
     3     1    19 1   
     4     2     3 ar  
     5     2    25 1   
     6     3     4 ar  
     7     3    26 1   
     8     4     5 ar  
     9     4    20 1   
    10     5     6 ar  
    11     5    27 1   
    12     6    28 1   
    13     7     8 ar  
    14     7    20 ar  
    15     7    29 1   
    16     8    17 ar  
    17     8    44 1   
    18     9    10 2   
    19     9    21 1   
    20     9    44 1   
    21    11    12 1   
    22    11    21 1   
    23    11    30 1   
    24    11    45 1   
    25    12    13 1   
    26    12    22 1   
    27    12    31 1   
    28    13    14 1   
    29    13    32 1   
    30    13    33 1   
    31    14    15 1   
    32    14    34 1   
    33    14    35 1   
    34    15    16 1   
    35    15    22 1   
    36    15    36 1   
    37    16    21 1   
    38    16    37 1   
    39    16    38 1   
    40    17    18 ar  
    41    17    23 1   
    42    18    24 ar  
    43    18    39 1   
    44    20    24 ar  
    45    21    40 1   
    46    23    41 1   
    47    23    42 1   
    48    24    43 1   
    49    44    46 1   
@<TRIPOS>SUBSTRUCTURE
     1 6EZ         1 TEMP              0 ****  ****    0 ROOT
