@<TRIPOS>MOLECULE
6F0
   16    16     1     0     0
SMALL
No Charge or Current Charge


@<TRIPOS>ATOM
      1 OAB          2.2210    -0.4590     0.9720 o          1 6F0      -0.718000
      2 CAH          1.6450     0.0080    -0.0010 c          1 6F0       0.731600
      3 OAC          2.2230     0.4860    -0.9650 o          1 6F0      -0.718000
      4 CAK          0.1570    -0.0230    -0.0190 ca         1 6F0      -0.231600
      5 CAJ         -0.5600     1.1840    -0.0470 ca         1 6F0       0.224000
      6 FAD          0.0890     2.3700    -0.0240 f          1 6F0      -0.179000
      7 CAG         -1.9640     1.1830    -0.0780 ca         1 6F0      -0.243000
      8 CAE         -2.6650    -0.0310    -0.0840 ca         1 6F0      -0.072000
      9 CAF         -1.9510    -1.2380    -0.0530 ca         1 6F0      -0.243000
     10 CAI         -0.5480    -1.2370    -0.0180 ca         1 6F0       0.338000
     11 NAA          0.0940    -2.4420     0.0140 nv         1 6F0      -1.085000
     12 H2          -2.5050     2.1250    -0.0960 ha         1 6F0       0.104000
     13 H3          -3.7520    -0.0370    -0.1090 ha         1 6F0       0.081000
     14 H4          -2.4960    -2.1780    -0.0560 ha         1 6F0       0.087000
     15 H5          -0.4540    -3.2760     0.2150 hn         1 6F0       0.463000
     16 H6           1.0630    -2.4540     0.3290 hn         1 6F0       0.463000
@<TRIPOS>BOND
     1     1     2 1   
     2     2     3 1   
     3     2     4 1   
     4     4     5 ar  
     5     4    10 ar  
     6     5     6 1   
     7     5     7 ar  
     8     7     8 ar  
     9     7    12 1   
    10     8     9 ar  
    11     8    13 1   
    12     9    10 ar  
    13     9    14 1   
    14    10    11 1   
    15    11    15 1   
    16    11    16 1   
@<TRIPOS>SUBSTRUCTURE
     1 6F0         1 TEMP              0 ****  ****    0 ROOT
