@<TRIPOS>MOLECULE
6F0
   16    16     1     0     0
SMALL
abcg2


@<TRIPOS>ATOM
      1 OAB          2.2500    -0.8640     0.6740 o          1 6F0      -0.718000
      2 CAH          1.6820     0.0030    -0.0290 c          1 6F0       0.731600
      3 OAC          2.2400     0.8660    -0.7230 o          1 6F0      -0.718000
      4 CAK          0.1590    -0.0270    -0.0350 ca         1 6F0      -0.231600
      5 CAJ         -0.5920     1.1410    -0.0870 ca         1 6F0       0.224000
      6 FAD          0.0440     2.3260    -0.0720 f          1 6F0      -0.179000
      7 CAG         -1.9730     1.1820    -0.1140 ca         1 6F0      -0.243000
      8 CAE         -2.6510    -0.0290    -0.0980 ca         1 6F0      -0.072000
      9 CAF         -1.9620    -1.2240    -0.0410 ca         1 6F0      -0.243000
     10 CAI         -0.5590    -1.2450     0.0060 ca         1 6F0       0.338000
     11 NAA          0.1000    -2.4480     0.0240 nv         1 6F0      -1.085000
     12 H2          -2.4970     2.1280    -0.1410 ha         1 6F0       0.104000
     13 H3          -3.7330    -0.0370    -0.1210 ha         1 6F0       0.081000
     14 H4          -2.5060    -2.1610    -0.0210 ha         1 6F0       0.087000
     15 H5          -0.4390    -3.2350     0.3460 hn         1 6F0       0.463000
     16 H6           1.0320    -2.3950     0.4130 hn         1 6F0       0.463000
@<TRIPOS>BOND
     1     1     2 1   
     2     2     3 1   
     3     2     4 1   
     4     4     5 ar  
     5     4    10 ar  
     6     5     6 1   
     7     5     7 ar  
     8     7     8 ar  
     9     7    12 1   
    10     8     9 ar  
    11     8    13 1   
    12     9    10 ar  
    13     9    14 1   
    14    10    11 1   
    15    11    15 1   
    16    11    16 1   
@<TRIPOS>SUBSTRUCTURE
     1 6F0         1 TEMP              0 ****  ****    0 ROOT
