@<TRIPOS>MOLECULE
6F2
   66    71     1     0     0
SMALL
No Charge or Current Charge


@<TRIPOS>ATOM
      1 C01         -1.1230     2.6430     2.9610 c3         1 6F2       0.152100
      2 N02         -1.5200     2.3100     1.5780 n3         1 6F2      -0.714600
      3 C03         -2.6710     3.1170     1.0910 c6         1 6F2       0.138300
      4 C04         -2.9790     2.8250    -0.4030 c6         1 6F2       0.094000
      5 N05         -3.1710     1.3730    -0.6930 n          1 6F2      -0.403800
      6 C06         -4.4270     0.8520    -1.0910 c          1 6F2       0.615700
      7 O07         -5.4430     1.5340    -1.0140 o          1 6F2      -0.591100
      8 C08         -4.4740    -0.5270    -1.7200 ca         1 6F2      -0.142600
      9 C09         -5.6480    -1.3060    -1.6430 ca         1 6F2      -0.058000
     10 C10         -5.6840    -2.5940    -2.2070 ca         1 6F2      -0.118000
     11 C11         -4.5490    -3.1240    -2.8450 ca         1 6F2      -0.070000
     12 C12         -3.3780    -2.3510    -2.9520 ca         1 6F2      -0.114300
     13 C13         -2.1040    -2.9330    -3.5700 c3         1 6F2       0.138900
     14 N14         -0.9110    -2.5770    -2.7780 na         1 6F2       0.127800
     15 C15         -0.6210    -3.0540    -1.5050 cc         1 6F2      -0.131000
     16 C16          0.3700    -2.2250    -1.0480 cd         1 6F2      -0.175000
     17 C17          1.0410    -2.2510     0.2750 ca         1 6F2       0.130000
     18 C18          1.1440    -3.4100     1.0950 ca         1 6F2       0.028000
     19 Cl           0.6160    -5.0170     0.5740 cl         1 6F2      -0.203000
     20 C20          1.7570    -3.3000     2.3670 ca         1 6F2       0.364900
     21 N21          2.2410    -2.1390     2.8760 nb         1 6F2      -0.664000
     22 C22          2.1280    -1.0610     2.0890 ca         1 6F2       0.339500
     23 N23          2.4580     0.2230     2.3360 na         1 6F2      -0.418300
     24 C24          2.0740     0.9910     1.2510 cc         1 6F2       0.535400
     25 C25          2.2560     2.4140     1.2730 cc         1 6F2      -0.256900
     26 C26          2.8110     3.1220     2.3020 cd         1 6F2      -0.149000
     27 N27          2.7620     4.4500     1.8710 na         1 6F2       0.144800
     28 C28          3.2340     5.6250     2.6160 c3         1 6F2       0.072900
     29 N29          2.1950     4.5880     0.6120 nd         1 6F2      -0.531800
     30 C30          1.8960     3.3460     0.2820 cc         1 6F2       0.321300
     31 C31          1.2410     3.0010    -1.0270 c3         1 6F2      -0.122400
     32 N32          1.5390     0.2290     0.2880 nd         1 6F2      -0.574100
     33 C33          1.5700    -1.0610     0.8280 ca         1 6F2       0.042400
     34 C34          0.6970    -1.3780    -2.1370 cd         1 6F2       0.290900
     35 N35         -0.0710    -1.5660    -3.1940 nc         1 6F2      -0.524800
     36 C36         -3.3670    -1.0440    -2.4250 ca         1 6F2      -0.065000
     37 C37         -2.0970     0.5150    -0.0960 c6         1 6F2       0.094000
     38 C38         -1.7940     0.8600     1.3890 c6         1 6F2       0.138300
     39 H011        -1.9350     2.4230     3.6670 h1         1 6F2       0.032367
     40 H012        -0.2390     2.0630     3.2600 h1         1 6F2       0.032367
     41 H013        -0.8710     3.7080     3.0450 h1         1 6F2       0.032367
     42 H031        -3.5690     2.9000     1.6880 h1         1 6F2       0.040700
     43 H032        -2.4590     4.1910     1.2020 h1         1 6F2       0.040700
     44 H381        -0.9360     0.2600     1.7230 h1         1 6F2       0.040700
     45 H382        -2.6550     0.5560     2.0020 h1         1 6F2       0.040700
     46 H041        -3.8610     3.4050    -0.7080 h1         1 6F2       0.064450
     47 H042        -2.1390     3.1900    -1.0100 h1         1 6F2       0.064450
     48 H371        -2.3740    -0.5470    -0.1340 h1         1 6F2       0.064450
     49 H372        -1.1780     0.6340    -0.6860 h1         1 6F2       0.064450
     50 H09         -6.5280    -0.9210    -1.1310 ha         1 6F2       0.128000
     51 H36         -2.4810    -0.4290    -2.5530 ha         1 6F2       0.122000
     52 H10         -6.5900    -3.1920    -2.1300 ha         1 6F2       0.120000
     53 H11         -4.5800    -4.1340    -3.2480 ha         1 6F2       0.117000
     54 H131        -2.1730    -4.0270    -3.6200 h1         1 6F2       0.067200
     55 H132        -1.9850    -2.5530    -4.5920 h1         1 6F2       0.067200
     56 H15         -1.1920    -3.8430    -1.0340 h4         1 6F2       0.159000
     57 H34          1.4690    -0.6210    -2.1870 h4         1 6F2       0.058100
     58 H20          1.8600    -4.1790     3.0020 h4         1 6F2       0.033100
     59 H23          2.8810     0.5680     3.1800 hn         1 6F2       0.365000
     60 H26          3.2180     2.8230     3.2610 h4         1 6F2       0.150000
     61 H281         3.9110     5.3060     3.4190 h1         1 6F2       0.059367
     62 H282         3.7700     6.3010     1.9390 h1         1 6F2       0.059367
     63 H283         2.3750     6.1490     3.0520 h1         1 6F2       0.059367
     64 H311         0.2730     2.5190    -0.8590 hc         1 6F2       0.058700
     65 H312         1.0660     3.8980    -1.6320 hc         1 6F2       0.058700
     66 H313         1.8700     2.3210    -1.6110 hc         1 6F2       0.058700
@<TRIPOS>BOND
     1     1     2 1   
     2     1    39 1   
     3     1    40 1   
     4     1    41 1   
     5     2     3 1   
     6     2    38 1   
     7     3     4 1   
     8     3    42 1   
     9     3    43 1   
    10     4     5 1   
    11     4    46 1   
    12     4    47 1   
    13     5     6 1   
    14     5    37 1   
    15     6     7 2   
    16     6     8 1   
    17     8     9 ar  
    18     8    36 ar  
    19     9    10 ar  
    20     9    50 1   
    21    10    11 ar  
    22    10    52 1   
    23    11    12 ar  
    24    11    53 1   
    25    12    13 1   
    26    12    36 ar  
    27    13    14 1   
    28    13    54 1   
    29    13    55 1   
    30    14    15 1   
    31    14    35 1   
    32    15    16 2   
    33    15    56 1   
    34    16    17 1   
    35    16    34 1   
    36    17    18 ar  
    37    17    33 ar  
    38    18    19 1   
    39    18    20 ar  
    40    20    21 ar  
    41    20    58 1   
    42    21    22 ar  
    43    22    23 1   
    44    22    33 ar  
    45    23    24 1   
    46    23    59 1   
    47    24    25 1   
    48    24    32 2   
    49    25    26 2   
    50    25    30 1   
    51    26    27 1   
    52    26    60 1   
    53    27    28 1   
    54    27    29 1   
    55    28    61 1   
    56    28    62 1   
    57    28    63 1   
    58    29    30 2   
    59    30    31 1   
    60    31    64 1   
    61    31    65 1   
    62    31    66 1   
    63    32    33 1   
    64    34    35 2   
    65    34    57 1   
    66    36    51 1   
    67    37    38 1   
    68    37    48 1   
    69    37    49 1   
    70    38    44 1   
    71    38    45 1   
@<TRIPOS>SUBSTRUCTURE
     1 6F2         1 TEMP              0 ****  ****    0 ROOT
