@<TRIPOS>MOLECULE
6F2
   66    71     1     0     0
SMALL
abcg2


@<TRIPOS>ATOM
      1 C01         -8.1680     0.6120     3.1520 c3         1 6F2       0.152100
      2 N02         -6.7790     0.5280     2.7600 n3         1 6F2      -0.714600
      3 C03         -6.2330     1.8340     2.4500 c6         1 6F2       0.138300
      4 C04         -4.7570     1.7260     2.1070 c6         1 6F2       0.094000
      5 N05         -4.5550     0.7950     1.0090 n          1 6F2      -0.403800
      6 C06         -4.1840     1.2440    -0.2070 c          1 6F2       0.615700
      7 O07         -4.0190     2.4300    -0.4630 o          1 6F2      -0.591100
      8 C08         -3.9220     0.2310    -1.2790 ca         1 6F2      -0.142600
      9 C09         -4.5190     0.4070    -2.5260 ca         1 6F2      -0.058000
     10 C10         -4.2330    -0.4710    -3.5570 ca         1 6F2      -0.118000
     11 C11         -3.3260    -1.5060    -3.3630 ca         1 6F2      -0.070000
     12 C12         -2.7100    -1.6780    -2.1300 ca         1 6F2      -0.114300
     13 C13         -1.7310    -2.8010    -1.9150 c3         1 6F2       0.138900
     14 N14         -0.4390    -2.3190    -1.4770 na         1 6F2       0.127800
     15 C15          0.1190    -2.4790    -0.2710 cc         1 6F2      -0.131000
     16 C16          1.3270    -1.8000    -0.2940 cd         1 6F2      -0.175000
     17 C17          2.3260    -1.6290     0.7490 ca         1 6F2       0.130000
     18 C18          2.5720    -2.5100     1.8080 ca         1 6F2       0.028000
     19 CL           1.6870    -3.9900     1.9750 cl         1 6F2      -0.203000
     20 C20          3.5590    -2.2700     2.7680 ca         1 6F2       0.364900
     21 N21          4.3460    -1.2040     2.7710 nb         1 6F2      -0.664000
     22 C22          4.1240    -0.3730     1.7750 ca         1 6F2       0.339500
     23 N23          4.7630     0.8020     1.5040 na         1 6F2      -0.418300
     24 C24          4.1960     1.3190     0.3750 cc         1 6F2       0.535400
     25 C25          4.6270     2.5580    -0.2150 cc         1 6F2      -0.256900
     26 C26          5.6270     3.4050     0.2310 cd         1 6F2      -0.149000
     27 N27          5.6780     4.4230    -0.6280 na         1 6F2       0.144800
     28 C28          6.5730     5.5540    -0.5980 c3         1 6F2       0.072900
     29 N29          4.7840     4.3050    -1.6110 nd         1 6F2      -0.531800
     30 C30          4.1310     3.1830    -1.3860 cc         1 6F2       0.321300
     31 C31          3.0450     2.7310    -2.2960 c3         1 6F2      -0.122400
     32 N32          3.2360     0.5580    -0.0940 nd         1 6F2      -0.574100
     33 C33          3.1680    -0.5090     0.7560 ca         1 6F2       0.042400
     34 C34          1.3740    -1.2590    -1.6010 cd         1 6F2       0.290900
     35 N35          0.3100    -1.5860    -2.2990 nc         1 6F2      -0.524800
     36 C36         -3.0190    -0.8080    -1.0890 ca         1 6F2      -0.065000
     37 C37         -5.1220    -0.5140     1.2860 c6         1 6F2       0.094000
     38 C38         -6.5930    -0.3820     1.6480 c6         1 6F2       0.138300
     39 H011        -8.8200     1.0000     2.3540 h1         1 6F2       0.032367
     40 H012        -8.5390    -0.3750     3.4340 h1         1 6F2       0.032367
     41 H013        -8.2720     1.2700     4.0160 h1         1 6F2       0.032367
     42 H031        -6.7670     2.3160     1.6130 h1         1 6F2       0.040700
     43 H032        -6.3460     2.4850     3.3210 h1         1 6F2       0.040700
     44 H381        -6.9740    -1.3680     1.9230 h1         1 6F2       0.040700
     45 H382        -7.1490    -0.0560     0.7510 h1         1 6F2       0.040700
     46 H041        -4.3560     2.7000     1.8450 h1         1 6F2       0.064450
     47 H042        -4.2050     1.3550     2.9760 h1         1 6F2       0.064450
     48 H371        -5.0280    -1.1680     0.4240 h1         1 6F2       0.064450
     49 H372        -4.5710    -0.9720     2.1130 h1         1 6F2       0.064450
     50 H09         -5.2130     1.2220    -2.6850 ha         1 6F2       0.128000
     51 H36         -2.5450    -0.9360    -0.1220 ha         1 6F2       0.122000
     52 H10         -4.7080    -0.3450    -4.5210 ha         1 6F2       0.120000
     53 H11         -3.0960    -2.1810    -4.1780 ha         1 6F2       0.117000
     54 H131        -2.0930    -3.4920    -1.1540 h1         1 6F2       0.067200
     55 H132        -1.5970    -3.3730    -2.8340 h1         1 6F2       0.067200
     56 H15         -0.3860    -3.0290     0.5040 h4         1 6F2       0.159000
     57 H34          2.1530    -0.6560    -2.0380 h4         1 6F2       0.058100
     58 H20          3.7070    -2.9910     3.5630 h4         1 6F2       0.033100
     59 H23          5.5120     1.2010     2.0480 hn         1 6F2       0.365000
     60 H26          6.2870     3.3490     1.0820 h4         1 6F2       0.150000
     61 H281         7.2090     5.5560    -1.4810 h1         1 6F2       0.059367
     62 H282         6.0050     6.4810    -0.5630 h1         1 6F2       0.059367
     63 H283         7.1960     5.4870     0.2890 h1         1 6F2       0.059367
     64 H311         2.0980     2.6370    -1.7660 hc         1 6F2       0.058700
     65 H312         2.9180     3.4410    -3.1110 hc         1 6F2       0.058700
     66 H313         3.2650     1.7510    -2.7200 hc         1 6F2       0.058700
@<TRIPOS>BOND
     1     1     2 1   
     2     1    39 1   
     3     1    40 1   
     4     1    41 1   
     5     2     3 1   
     6     2    38 1   
     7     3     4 1   
     8     3    42 1   
     9     3    43 1   
    10     4     5 1   
    11     4    46 1   
    12     4    47 1   
    13     5     6 1   
    14     5    37 1   
    15     6     7 2   
    16     6     8 1   
    17     8     9 ar  
    18     8    36 ar  
    19     9    10 ar  
    20     9    50 1   
    21    10    11 ar  
    22    10    52 1   
    23    11    12 ar  
    24    11    53 1   
    25    12    13 1   
    26    12    36 ar  
    27    13    14 1   
    28    13    54 1   
    29    13    55 1   
    30    14    15 1   
    31    14    35 1   
    32    15    16 2   
    33    15    56 1   
    34    16    17 1   
    35    16    34 1   
    36    17    18 ar  
    37    17    33 ar  
    38    18    19 1   
    39    18    20 ar  
    40    20    21 ar  
    41    20    58 1   
    42    21    22 ar  
    43    22    23 1   
    44    22    33 ar  
    45    23    24 1   
    46    23    59 1   
    47    24    25 1   
    48    24    32 2   
    49    25    26 2   
    50    25    30 1   
    51    26    27 1   
    52    26    60 1   
    53    27    28 1   
    54    27    29 1   
    55    28    61 1   
    56    28    62 1   
    57    28    63 1   
    58    29    30 2   
    59    30    31 1   
    60    31    64 1   
    61    31    65 1   
    62    31    66 1   
    63    32    33 1   
    64    34    35 2   
    65    34    57 1   
    66    36    51 1   
    67    37    38 1   
    68    37    48 1   
    69    37    49 1   
    70    38    44 1   
    71    38    45 1   
@<TRIPOS>SUBSTRUCTURE
     1 6F2         1 TEMP              0 ****  ****    0 ROOT
