@<TRIPOS>MOLECULE
6F3
   33    35     1     0     0
SMALL
abcg2


@<TRIPOS>ATOM
      1 C8          -2.4030     1.3400     0.0210 cc         1 6F3      -0.092000
      2 C4           0.1450     1.0040     0.1280 ca         1 6F3      -0.133500
      3 C5           1.1530     0.0460     0.2290 ca         1 6F3      -0.003000
      4 C6           2.4760     0.4540     0.3170 ca         1 6F3      -0.307500
      5 C2           1.8210     2.7450     0.2010 ca         1 6F3      -0.129000
      6 N1          -5.5170    -0.7130    -0.1640 ns         1 6F3      -0.382100
      7 N2           4.1070    -1.2030    -1.1430 n7         1 6F3      -0.863300
      8 O4           4.9280    -0.1650     0.9690 o          1 6F3      -0.531000
      9 S1           3.7440    -0.7880     0.4040 sy         1 6F3       1.148600
     10 O3           3.1730    -1.9720     1.0230 o          1 6F3      -0.531000
     11 C14          4.6620    -0.1890    -2.0300 c3         1 6F3       0.181100
     12 C1           2.8300     1.7950     0.3090 ca         1 6F3      -0.010000
     13 C3           0.4980     2.3570     0.1120 ca         1 6F3      -0.045000
     14 C7          -1.2520     0.6200     0.0530 cd         1 6F3       0.168500
     15 O1          -1.5300    -0.7170     0.0100 os         1 6F3      -0.228000
     16 C10         -2.8580    -0.8530    -0.0500 cd         1 6F3       0.282800
     17 C13         -3.5620    -2.0690    -0.1090 cd         1 6F3      -0.379800
     18 C12         -4.9110    -1.9310    -0.1670 cc         1 6F3      -0.017400
     19 C11         -4.8860     0.5180    -0.1000 c          1 6F3       0.598600
     20 O2          -5.5200     1.5660    -0.0940 o          1 6F3      -0.543000
     21 C9          -3.4580     0.3870    -0.0460 cc         1 6F3      -0.260600
     22 H1          -2.4950     2.4140     0.0460 ha         1 6F3       0.157000
     23 H2           0.9090    -1.0080     0.2510 ha         1 6F3       0.145000
     24 H3           2.0740     3.7960     0.1920 ha         1 6F3       0.123000
     25 H4           3.3790    -1.7680    -1.5640 hn         1 6F3       0.481000
     26 H5           3.9920     0.6590    -2.1940 h1         1 6F3       0.051700
     27 H6           5.6080     0.1750    -1.6380 h1         1 6F3       0.051700
     28 H7           4.8530    -0.6630    -2.9890 h1         1 6F3       0.051700
     29 H8           3.8620     2.1060     0.3940 ha         1 6F3       0.140000
     30 H9          -0.2690     3.1160     0.0320 ha         1 6F3       0.122000
     31 H10         -3.0890    -3.0390    -0.1110 ha         1 6F3       0.220000
     32 H12         -5.5780    -2.7770    -0.2190 h4         1 6F3       0.205000
     33 H13         -6.5270    -0.6940    -0.2090 hn         1 6F3       0.329500
@<TRIPOS>BOND
     1     1    14 2   
     2     1    21 1   
     3     1    22 1   
     4     2     3 ar  
     5     2    13 ar  
     6     2    14 1   
     7     3     4 ar  
     8     3    23 1   
     9     4     9 1   
    10     4    12 ar  
    11     5    12 ar  
    12     5    13 ar  
    13     5    24 1   
    14     6    18 1   
    15     6    19 1   
    16     6    33 1   
    17     7     9 1   
    18     7    11 1   
    19     7    25 1   
    20     8     9 2   
    21     9    10 2   
    22    11    26 1   
    23    11    27 1   
    24    11    28 1   
    25    12    29 1   
    26    13    30 1   
    27    14    15 1   
    28    15    16 1   
    29    16    17 1   
    30    16    21 2   
    31    17    18 2   
    32    17    31 1   
    33    18    32 1   
    34    19    20 2   
    35    19    21 1   
@<TRIPOS>SUBSTRUCTURE
     1 6F3         1 TEMP              0 ****  ****    0 ROOT
