@<TRIPOS>MOLECULE
6F3
   33    35     1     0     0
SMALL
No Charge or Current Charge


@<TRIPOS>ATOM
      1 C8          -2.5820     1.2590     0.1170 cc         1 6F3      -0.092000
      2 C4          -0.0010     1.1200     0.1830 ca         1 6F3      -0.133500
      3 C5           1.1100     0.2480     0.1560 ca         1 6F3      -0.003000
      4 C6           2.4240     0.7570     0.2290 ca         1 6F3      -0.307500
      5 C2           1.5320     3.0160     0.3560 ca         1 6F3      -0.129000
      6 N1          -5.6350    -0.8810    -0.1170 ns         1 6F3      -0.382100
      7 N2           3.9170    -0.6210    -1.4590 n7         1 6F3      -0.863300
      8 O4           5.0430     0.3380     0.5760 o          1 6F3      -0.531000
      9 S1           3.8220    -0.3710     0.1880 sy         1 6F3       1.148600
     10 O3           3.4250    -1.6580     0.7650 o          1 6F3      -0.531000
     11 C14          5.2070    -1.0740    -2.0120 c3         1 6F3       0.181100
     12 C1           2.6340     2.1470     0.3280 ca         1 6F3      -0.010000
     13 C3           0.2240     2.5090     0.2850 ca         1 6F3      -0.045000
     14 C7          -1.3780     0.5910     0.1070 cd         1 6F3       0.168500
     15 O1          -1.5420    -0.7790     0.0090 os         1 6F3      -0.228000
     16 C10         -2.9030    -0.9190    -0.0400 cd         1 6F3       0.282800
     17 C13         -3.5970    -2.1630    -0.1440 cd         1 6F3      -0.379800
     18 C12         -4.9810    -2.1140    -0.1810 cc         1 6F3      -0.017400
     19 C11         -5.0290     0.3520    -0.0160 c          1 6F3       0.598600
     20 O2          -5.6620     1.3950     0.0370 o          1 6F3      -0.543000
     21 C9          -3.5690     0.2570     0.0200 cc         1 6F3      -0.260600
     22 H1          -2.7570     2.3280     0.1850 ha         1 6F3       0.157000
     23 H2           0.9580    -0.8270     0.0740 ha         1 6F3       0.145000
     24 H3           1.6930     4.0890     0.4330 ha         1 6F3       0.123000
     25 H4           3.6820     0.3020    -1.8220 hn         1 6F3       0.481000
     26 H5           6.0110    -0.3540    -1.8040 h1         1 6F3       0.051700
     27 H6           5.4990    -2.0440    -1.5850 h1         1 6F3       0.051700
     28 H7           5.1390    -1.1940    -3.1010 h1         1 6F3       0.051700
     29 H8           3.6410     2.5590     0.3850 ha         1 6F3       0.140000
     30 H9          -0.6100     3.2060     0.3080 ha         1 6F3       0.122000
     31 H10         -3.0550    -3.1030    -0.1920 ha         1 6F3       0.220000
     32 H12         -5.6540    -2.9670    -0.2590 h4         1 6F3       0.205000
     33 H13         -6.6470    -0.8530    -0.1440 hn         1 6F3       0.329500
@<TRIPOS>BOND
     1     1    14 2   
     2     1    21 1   
     3     1    22 1   
     4     2     3 ar  
     5     2    13 ar  
     6     2    14 1   
     7     3     4 ar  
     8     3    23 1   
     9     4     9 1   
    10     4    12 ar  
    11     5    12 ar  
    12     5    13 ar  
    13     5    24 1   
    14     6    18 1   
    15     6    19 1   
    16     6    33 1   
    17     7     9 1   
    18     7    11 1   
    19     7    25 1   
    20     8     9 2   
    21     9    10 2   
    22    11    26 1   
    23    11    27 1   
    24    11    28 1   
    25    12    29 1   
    26    13    30 1   
    27    14    15 1   
    28    15    16 1   
    29    16    17 1   
    30    16    21 2   
    31    17    18 2   
    32    17    31 1   
    33    18    32 1   
    34    19    20 2   
    35    19    21 1   
@<TRIPOS>SUBSTRUCTURE
     1 6F3         1 TEMP              0 ****  ****    0 ROOT
