@<TRIPOS>MOLECULE
6F4
   21    22     1     0     0
SMALL
bcc


@<TRIPOS>ATOM
      1 CAB         -3.2360     0.3530     1.3940 cc         1 6F4      -0.139000
      2 CAA         -4.4700    -0.1690     0.9160 cc         1 6F4      -0.153000
      3 CAE         -4.3750    -0.6490    -0.3530 cd         1 6F4      -0.116100
      4 SAD         -2.7880    -0.4680    -0.9780 ss         1 6F4      -0.059800
      5 CAC         -2.2310     0.2660     0.4790 cd         1 6F4      -0.096400
      6 CAF         -0.8250     0.7470     0.6070 c3         1 6F4       0.278100
      7 NAG          0.1020    -0.2950     0.2070 nu         1 6F4      -0.835900
      8 CAH          1.4170     0.0220     0.0770 cc         1 6F4       0.657300
      9 SAJ          2.6110    -1.2100    -0.2660 ss         1 6F4      -0.374800
     10 NAI          1.9050     1.2130     0.1240 nd         1 6F4      -0.382000
     11 NAL          3.2480     1.2580    -0.1030 nd         1 6F4      -0.377000
     12 CAK          3.7700     0.0990    -0.3120 cc         1 6F4       0.645300
     13 NAM          5.0740    -0.1320    -0.6200 nv         1 6F4      -0.908500
     14 H1          -3.1010     0.7800     2.3790 ha         1 6F4       0.152000
     15 H2          -5.3820    -0.1880     1.4950 ha         1 6F4       0.153000
     16 H3          -5.1460    -1.1090    -0.9510 h4         1 6F4       0.169000
     17 H4          -0.6580     1.6110    -0.0400 h1         1 6F4       0.067700
     18 H5          -0.6560     1.0830     1.6350 h1         1 6F4       0.067700
     19 H6          -0.0940    -1.2070     0.5930 hn         1 6F4       0.426800
     20 H7           5.4600    -1.0200    -0.3420 hn         1 6F4       0.413800
     21 H8           5.6900     0.6380    -0.4050 hn         1 6F4       0.413800
@<TRIPOS>BOND
     1     1     2 1   
     2     1     5 2   
     3     1    14 1   
     4     2     3 2   
     5     2    15 1   
     6     3     4 1   
     7     3    16 1   
     8     4     5 1   
     9     5     6 1   
    10     6     7 1   
    11     6    17 1   
    12     6    18 1   
    13     7     8 1   
    14     7    19 1   
    15     8     9 1   
    16     8    10 2   
    17     9    12 1   
    18    10    11 1   
    19    11    12 2   
    20    12    13 1   
    21    13    20 1   
    22    13    21 1   
@<TRIPOS>SUBSTRUCTURE
     1 6F4         1 TEMP              0 ****  ****    0 ROOT
