@<TRIPOS>MOLECULE
6F4
   21    22     1     0     0
SMALL
No Charge or Current Charge


@<TRIPOS>ATOM
      1 CAB         -2.8050    -0.1650     1.3440 cc         1 6F4      -0.121000
      2 CAA         -4.1160    -0.6570     1.1300 cc         1 6F4      -0.135000
      3 CAE         -4.6060    -0.3910    -0.1220 cd         1 6F4      -0.243000
      4 SAD         -3.4260     0.5050    -1.0990 ss         1 6F4       0.230000
      5 CAC         -2.2780     0.4820     0.2550 cd         1 6F4      -0.241300
      6 CAF         -0.9300     1.1300     0.1270 c3         1 6F4       0.278100
      7 NAG          0.0550     0.0540     0.0820 nu         1 6F4      -0.891100
      8 CAH          1.4080     0.1910     0.0060 cc         1 6F4       0.657300
      9 SAJ          2.4520    -1.1830     0.0370 ss         1 6F4      -0.374800
     10 NAI          1.9920     1.3740    -0.0950 nd         1 6F4      -0.382000
     11 NAL          3.3690     1.2440    -0.1570 nd         1 6F4      -0.377000
     12 CAK          3.7160    -0.0240    -0.1000 cc         1 6F4       0.645300
     13 NAM          5.0040    -0.4020    -0.1390 nv         1 6F4      -1.018900
     14 H1          -2.2820    -0.2960     2.2880 ha         1 6F4       0.134000
     15 H2          -4.6660    -1.1930     1.8990 ha         1 6F4       0.135000
     16 H3          -5.5710    -0.6540    -0.5370 h4         1 6F4       0.151000
     17 H4          -0.8880     1.7380    -0.7880 h1         1 6F4       0.067700
     18 H5          -0.7530     1.7880     0.9900 h1         1 6F4       0.067700
     19 H6          -0.2750    -0.9000     0.1930 hn         1 6F4       0.482000
     20 H7           5.2200    -1.3380     0.1850 hn         1 6F4       0.469000
     21 H8           5.6970     0.3170     0.0390 hn         1 6F4       0.469000
@<TRIPOS>BOND
     1     1     2 1   
     2     1     5 2   
     3     1    14 1   
     4     2     3 2   
     5     2    15 1   
     6     3     4 1   
     7     3    16 1   
     8     4     5 1   
     9     5     6 1   
    10     6     7 1   
    11     6    17 1   
    12     6    18 1   
    13     7     8 1   
    14     7    19 1   
    15     8     9 1   
    16     8    10 2   
    17     9    12 1   
    18    10    11 1   
    19    11    12 2   
    20    12    13 1   
    21    13    20 1   
    22    13    21 1   
@<TRIPOS>SUBSTRUCTURE
     1 6F4         1 TEMP              0 ****  ****    0 ROOT
