@<TRIPOS>MOLECULE
6F5
   25    24     1     0     0
SMALL
bcc


@<TRIPOS>ATOM
      1 CAB          4.3200     0.9430    -0.1410 c3         1 6F5      -0.083600
      2 CAC          3.2100    -0.0920    -0.2900 c3         1 6F5      -0.062700
      3 CAD          3.5130    -1.3280     0.5510 c3         1 6F5      -0.083600
      4 CAE          1.8540     0.5270     0.0550 c3         1 6F5      -0.072400
      5 CAF          0.6490    -0.3780    -0.1710 c3         1 6F5      -0.079400
      6 CAG         -0.6790     0.3420     0.0340 c3         1 6F5      -0.054400
      7 CAH         -1.8790    -0.5670    -0.1720 c3         1 6F5      -0.204400
      8 CAI         -3.2630     0.0790     0.0170 c          1 6F5       0.926600
      9 OAJ         -3.3100     1.2350     0.4810 o          1 6F5      -0.849300
     10 H1           4.4090     1.2740     0.8970 hc         1 6F5       0.025533
     11 H2           5.2880     0.5400    -0.4430 hc         1 6F5       0.025533
     12 H3           4.1240     1.8270    -0.7520 hc         1 6F5       0.025533
     13 H4           3.1760    -0.4010    -1.3430 hc         1 6F5       0.039700
     14 H5           3.5230    -1.0800     1.6160 hc         1 6F5       0.025533
     15 H6           2.7750    -2.1170     0.4030 hc         1 6F5       0.025533
     16 H7           4.4900    -1.7450     0.3000 hc         1 6F5       0.025533
     17 H8           1.8700     0.8590     1.1010 hc         1 6F5       0.033700
     18 H9           1.7260     1.4350    -0.5450 hc         1 6F5       0.033700
     19 H10          0.6880    -0.7870    -1.1880 hc         1 6F5       0.024200
     20 H11          0.6930    -1.2410     0.5010 hc         1 6F5       0.024200
     21 H12         -0.7060     0.7700     1.0410 hc         1 6F5       0.037700
     22 H13         -0.7360     1.1920    -0.6540 hc         1 6F5       0.037700
     23 H14         -1.8400    -1.0120    -1.1730 hc         1 6F5       0.014700
     24 H15         -1.8150    -1.4190     0.5170 hc         1 6F5       0.014700
     25 O1          -4.2450    -0.6270    -0.3010 o          1 6F5      -0.849300
@<TRIPOS>BOND
     1     1     2 1   
     2     1    10 1   
     3     1    11 1   
     4     1    12 1   
     5     2     3 1   
     6     2     4 1   
     7     2    13 1   
     8     3    14 1   
     9     3    15 1   
    10     3    16 1   
    11     4     5 1   
    12     4    17 1   
    13     4    18 1   
    14     5     6 1   
    15     5    19 1   
    16     5    20 1   
    17     6     7 1   
    18     6    21 1   
    19     6    22 1   
    20     7     8 1   
    21     7    23 1   
    22     7    24 1   
    23     8     9 1   
    24     8    25 1   
@<TRIPOS>SUBSTRUCTURE
     1 6F5         1 TEMP              0 ****  ****    0 ROOT
