@<TRIPOS>MOLECULE
6F5
   25    24     1     0     0
SMALL
No Charge or Current Charge


@<TRIPOS>ATOM
      1 CAB          4.3400     0.9360    -0.3350 c3         1 6F5      -0.083600
      2 CAC          3.2220    -0.1300    -0.2930 c3         1 6F5      -0.062700
      3 CAD          3.5640    -1.2410     0.7290 c3         1 6F5      -0.083600
      4 CAE          1.8380     0.5280    -0.0350 c3         1 6F5      -0.072400
      5 CAF          0.6300    -0.4330    -0.1460 c3         1 6F5      -0.079400
      6 CAG         -0.7290     0.2860     0.0110 c3         1 6F5      -0.054400
      7 CAH         -1.9420    -0.6700    -0.0960 c3         1 6F5      -0.204400
      8 CAI         -3.2550     0.1160     0.0680 c          1 6F5       0.716000
      9 OAJ         -3.7000     0.2670     1.1960 o          1 6F5      -0.744000
     10 H1           4.4320     1.4450     0.6320 hc         1 6F5       0.025533
     11 H2           5.3070     0.4760    -0.5740 hc         1 6F5       0.025533
     12 H3           4.1290     1.6910    -1.1020 hc         1 6F5       0.025533
     13 H4           3.1870    -0.5970    -1.2860 hc         1 6F5       0.039700
     14 H5           3.5420    -0.8490     1.7530 hc         1 6F5       0.025533
     15 H6           2.8560    -2.0750     0.6610 hc         1 6F5       0.025533
     16 H7           4.5660    -1.6450     0.5390 hc         1 6F5       0.025533
     17 H8           1.8380     0.9910     0.9590 hc         1 6F5       0.033700
     18 H9           1.6980     1.3410    -0.7580 hc         1 6F5       0.033700
     19 H10          0.6590    -0.9390    -1.1200 hc         1 6F5       0.024200
     20 H11          0.7050    -1.2100     0.6240 hc         1 6F5       0.024200
     21 H12         -0.7560     0.7950     0.9820 hc         1 6F5       0.037700
     22 H13         -0.8150     1.0640    -0.7590 hc         1 6F5       0.037700
     23 H14         -1.8840    -1.1170    -1.0960 hc         1 6F5       0.014700
     24 H15         -1.8240    -1.3960     0.7190 hc         1 6F5       0.014700
     25 O1          -3.7710     0.5940    -0.9310 o          1 6F5      -0.744000
@<TRIPOS>BOND
     1     1     2 1   
     2     1    10 1   
     3     1    11 1   
     4     1    12 1   
     5     2     3 1   
     6     2     4 1   
     7     2    13 1   
     8     3    14 1   
     9     3    15 1   
    10     3    16 1   
    11     4     5 1   
    12     4    17 1   
    13     4    18 1   
    14     5     6 1   
    15     5    19 1   
    16     5    20 1   
    17     6     7 1   
    18     6    21 1   
    19     6    22 1   
    20     7     8 1   
    21     7    23 1   
    22     7    24 1   
    23     8     9 1   
    24     8    25 1   
@<TRIPOS>SUBSTRUCTURE
     1 6F5         1 TEMP              0 ****  ****    0 ROOT
