@<TRIPOS>MOLECULE
6F8
   55    55     1     0     0
SMALL
No Charge or Current Charge


@<TRIPOS>ATOM
      1 CAA         -7.2410     3.8510     1.1350 c3         1 6F8      -0.090100
      2 CAK         -7.2640     2.7310     0.0770 c3         1 6F8      -0.072400
      3 CAM         -7.9340     1.4350     0.5800 c3         1 6F8      -0.045200
      4 CAF         -7.9430     0.3470    -0.4790 c2         1 6F8      -0.216200
      5 CAD         -6.9790    -0.5590    -0.7230 c2         1 6F8      -0.213200
      6 CAL         -5.6400    -0.6940    -0.0220 c3         1 6F8      -0.012000
      7 CAE         -5.4720    -2.0930     0.5380 c2         1 6F8      -0.211200
      8 CAG         -4.4620    -2.9520     0.3060 c2         1 6F8      -0.218200
      9 CAN         -3.2630    -2.7340    -0.5970 c3         1 6F8      -0.042200
     10 CAO         -2.1070    -2.0170     0.1310 c3         1 6F8      -0.072400
     11 CAP         -0.8760    -1.7780    -0.7700 c3         1 6F8      -0.075400
     12 CAQ          0.2770    -1.0570    -0.0390 c3         1 6F8      -0.074400
     13 CAR          1.5070    -0.8160    -0.9410 c3         1 6F8      -0.076400
     14 CAS          2.6610    -0.0940    -0.2100 c3         1 6F8      -0.077400
     15 CAT          3.8910     0.1520    -1.1110 c3         1 6F8      -0.034100
     16 CAW          5.0180     0.8710    -0.3680 ca         1 6F8      -0.119300
     17 CAJ          5.1210     2.2740    -0.4760 ca         1 6F8      -0.112000
     18 CAH          6.1410     2.9740     0.1910 ca         1 6F8      -0.103000
     19 CAI          7.0730     2.2780     0.9790 ca         1 6F8      -0.123000
     20 CAU          6.9790     0.8830     1.0970 ca         1 6F8       0.122100
     21 OAB          7.8770     0.1980     1.8610 oh         1 6F8      -0.535100
     22 CAV          5.9570     0.1740     0.4300 ca         1 6F8       0.046100
     23 OAC          5.8920    -1.1890     0.5710 oh         1 6F8      -0.566100
     24 H1          -6.7560     4.7480     0.7310 hc         1 6F8       0.031700
     25 H2          -8.2600     4.1190     1.4390 hc         1 6F8       0.031700
     26 H3          -6.6850     3.5320     2.0260 hc         1 6F8       0.031700
     27 H4          -7.7940     3.0900    -0.8140 hc         1 6F8       0.038700
     28 H5          -6.2340     2.5100    -0.2310 hc         1 6F8       0.038700
     29 H6          -7.4190     1.0900     1.4840 hc         1 6F8       0.043700
     30 H7          -8.9630     1.6570     0.8880 hc         1 6F8       0.043700
     31 H8          -8.8580     0.3290    -1.0760 ha         1 6F8       0.165000
     32 H9          -7.1250    -1.2920    -1.5180 ha         1 6F8       0.167000
     33 H10         -4.8390    -0.4480    -0.7290 hc         1 6F8       0.050200
     34 H11         -5.5400     0.0330     0.7910 hc         1 6F8       0.050200
     35 H12         -6.2790    -2.3870     1.2130 ha         1 6F8       0.168000
     36 H13         -4.4700    -3.9300     0.7920 ha         1 6F8       0.165000
     37 H14         -2.9070    -3.7010    -0.9760 hc         1 6F8       0.044200
     38 H15         -3.5470    -2.1530    -1.4820 hc         1 6F8       0.044200
     39 H16         -2.4670    -1.0540     0.5130 hc         1 6F8       0.040200
     40 H17         -1.8080    -2.6140     1.0020 hc         1 6F8       0.040200
     41 H18         -0.5150    -2.7420    -1.1510 hc         1 6F8       0.036700
     42 H19         -1.1780    -1.1820    -1.6410 hc         1 6F8       0.036700
     43 H20         -0.0840    -0.0940     0.3420 hc         1 6F8       0.039700
     44 H21          0.5800    -1.6530     0.8320 hc         1 6F8       0.039700
     45 H22          1.8690    -1.7800    -1.3220 hc         1 6F8       0.036700
     46 H23          1.2040    -0.2210    -1.8120 hc         1 6F8       0.036700
     47 H24          2.2990     0.8700     0.1700 hc         1 6F8       0.046200
     48 H25          2.9610    -0.6860     0.6640 hc         1 6F8       0.046200
     49 H26          4.2420    -0.8010    -1.5240 hc         1 6F8       0.044700
     50 H27          3.5770     0.7480    -1.9770 hc         1 6F8       0.044700
     51 H28          4.4060     2.8280    -1.0810 ha         1 6F8       0.114000
     52 H29          6.2090     4.0560     0.0980 ha         1 6F8       0.117000
     53 H30          7.8620     2.8170     1.4960 ha         1 6F8       0.130000
     54 H31          7.6140    -0.7480     1.7930 ho         1 6F8       0.481000
     55 H32          5.1170    -1.5170     0.0660 ho         1 6F8       0.476000
@<TRIPOS>BOND
     1     1     2 1   
     2     1    24 1   
     3     1    25 1   
     4     1    26 1   
     5     2     3 1   
     6     2    27 1   
     7     2    28 1   
     8     3     4 1   
     9     3    29 1   
    10     3    30 1   
    11     4     5 2   
    12     4    31 1   
    13     5     6 1   
    14     5    32 1   
    15     6     7 1   
    16     6    33 1   
    17     6    34 1   
    18     7     8 2   
    19     7    35 1   
    20     8     9 1   
    21     8    36 1   
    22     9    10 1   
    23     9    37 1   
    24     9    38 1   
    25    10    11 1   
    26    10    39 1   
    27    10    40 1   
    28    11    12 1   
    29    11    41 1   
    30    11    42 1   
    31    12    13 1   
    32    12    43 1   
    33    12    44 1   
    34    13    14 1   
    35    13    45 1   
    36    13    46 1   
    37    14    15 1   
    38    14    47 1   
    39    14    48 1   
    40    15    16 1   
    41    15    49 1   
    42    15    50 1   
    43    16    17 ar  
    44    16    22 ar  
    45    17    18 ar  
    46    17    51 1   
    47    18    19 ar  
    48    18    52 1   
    49    19    20 ar  
    50    19    53 1   
    51    20    21 1   
    52    20    22 ar  
    53    21    54 1   
    54    22    23 1   
    55    23    55 1   
@<TRIPOS>SUBSTRUCTURE
     1 6F8         1 TEMP              0 ****  ****    0 ROOT
