@<TRIPOS>MOLECULE
6F8
   55    55     1     0     0
SMALL
bcc


@<TRIPOS>ATOM
      1 CAA        -10.0600     2.9400     1.1390 c3         1 6F8      -0.090100
      2 CAK         -9.3490     2.2240    -0.0010 c3         1 6F8      -0.072400
      3 CAM         -8.8290     0.8440     0.4070 c3         1 6F8      -0.045200
      4 CAF         -8.1910     0.1200    -0.7360 c2         1 6F8      -0.166200
      5 CAD         -6.9000    -0.1750    -0.8880 c2         1 6F8      -0.163200
      6 CAL         -5.7800     0.1140     0.0700 c3         1 6F8      -0.012000
      7 CAE         -5.2810    -1.1590     0.6930 c2         1 6F8      -0.161200
      8 CAG         -4.1250    -1.7760     0.4580 c2         1 6F8      -0.168200
      9 CAN         -3.0200    -1.3480    -0.4560 c3         1 6F8      -0.042200
     10 CAO         -1.7080    -1.1140     0.2950 c3         1 6F8      -0.072400
     11 CAP         -0.5210    -0.9110    -0.6360 c3         1 6F8      -0.075400
     12 CAQ          0.7870    -0.6480     0.0990 c3         1 6F8      -0.074400
     13 CAR          1.9830    -0.5600    -0.8400 c3         1 6F8      -0.076400
     14 CAS          3.2840    -0.1990    -0.1340 c3         1 6F8      -0.077400
     15 CAT          4.4760    -0.1720    -1.0960 c3         1 6F8      -0.034100
     16 CAW          5.7420     0.3290    -0.4570 ca         1 6F8      -0.119300
     17 CAJ          6.1570     1.6460    -0.6560 ca         1 6F8      -0.130000
     18 CAH          7.2980     2.1360    -0.0420 ca         1 6F8      -0.121000
     19 CAI          8.0560     1.3130     0.7800 ca         1 6F8      -0.141000
     20 CAU          7.6670    -0.0020     0.9870 ca         1 6F8       0.122100
     21 OAB          8.4200    -0.7900     1.7840 oh         1 6F8      -0.496100
     22 CAV          6.5060    -0.4880     0.3720 ca         1 6F8       0.046100
     23 OAC          6.1980    -1.7810     0.6590 oh         1 6F8      -0.527100
     24 H1         -10.4040     3.9290     0.8370 hc         1 6F8       0.031700
     25 H2         -10.9320     2.3750     1.4740 hc         1 6F8       0.031700
     26 H3          -9.4010     3.0660     2.0000 hc         1 6F8       0.031700
     27 H4         -10.0300     2.1190    -0.8500 hc         1 6F8       0.038700
     28 H5          -8.5110     2.8290    -0.3560 hc         1 6F8       0.038700
     29 H6          -8.1340     0.9520     1.2430 hc         1 6F8       0.043700
     30 H7          -9.6690     0.2490     0.7830 hc         1 6F8       0.043700
     31 H8          -8.8680    -0.1730    -1.5350 ha         1 6F8       0.115000
     32 H9          -6.6020    -0.7070    -1.7880 ha         1 6F8       0.117000
     33 H10         -4.9750     0.6250    -0.4630 hc         1 6F8       0.050200
     34 H11         -6.1090     0.7940     0.8600 hc         1 6F8       0.050200
     35 H12         -5.9730    -1.6260     1.3890 ha         1 6F8       0.118000
     36 H13         -3.9370    -2.7030     0.9940 ha         1 6F8       0.115000
     37 H14         -2.8600    -2.1340    -1.2020 hc         1 6F8       0.044200
     38 H15         -3.2900    -0.4480    -1.0130 hc         1 6F8       0.044200
     39 H16         -1.8190    -0.2480     0.9560 hc         1 6F8       0.040200
     40 H17         -1.5090    -1.9700     0.9490 hc         1 6F8       0.040200
     41 H18         -0.4090    -1.7990    -1.2690 hc         1 6F8       0.036700
     42 H19         -0.7240    -0.0790    -1.3190 hc         1 6F8       0.036700
     43 H20          0.7020     0.2810     0.6740 hc         1 6F8       0.039700
     44 H21          0.9600    -1.4430     0.8330 hc         1 6F8       0.039700
     45 H22          2.1010    -1.5160    -1.3630 hc         1 6F8       0.036700
     46 H23          1.7830     0.1870    -1.6160 hc         1 6F8       0.036700
     47 H24          3.1860     0.7840     0.3350 hc         1 6F8       0.046200
     48 H25          3.4700    -0.9080     0.6780 hc         1 6F8       0.046200
     49 H26          4.6150    -1.1670    -1.5380 hc         1 6F8       0.044700
     50 H27          4.2300     0.4800    -1.9370 hc         1 6F8       0.044700
     51 H28          5.5710     2.2870    -1.3030 ha         1 6F8       0.132000
     52 H29          7.6050     3.1610    -0.2040 ha         1 6F8       0.135000
     53 H30          8.9540     1.6810     1.2600 ha         1 6F8       0.148000
     54 H31          8.0670    -1.6880     1.7950 ho         1 6F8       0.442000
     55 H32          5.5240    -2.1240     0.0640 ho         1 6F8       0.437000
@<TRIPOS>BOND
     1     1     2 1   
     2     1    24 1   
     3     1    25 1   
     4     1    26 1   
     5     2     3 1   
     6     2    27 1   
     7     2    28 1   
     8     3     4 1   
     9     3    29 1   
    10     3    30 1   
    11     4     5 2   
    12     4    31 1   
    13     5     6 1   
    14     5    32 1   
    15     6     7 1   
    16     6    33 1   
    17     6    34 1   
    18     7     8 2   
    19     7    35 1   
    20     8     9 1   
    21     8    36 1   
    22     9    10 1   
    23     9    37 1   
    24     9    38 1   
    25    10    11 1   
    26    10    39 1   
    27    10    40 1   
    28    11    12 1   
    29    11    41 1   
    30    11    42 1   
    31    12    13 1   
    32    12    43 1   
    33    12    44 1   
    34    13    14 1   
    35    13    45 1   
    36    13    46 1   
    37    14    15 1   
    38    14    47 1   
    39    14    48 1   
    40    15    16 1   
    41    15    49 1   
    42    15    50 1   
    43    16    17 ar  
    44    16    22 ar  
    45    17    18 ar  
    46    17    51 1   
    47    18    19 ar  
    48    18    52 1   
    49    19    20 ar  
    50    19    53 1   
    51    20    21 1   
    52    20    22 ar  
    53    21    54 1   
    54    22    23 1   
    55    23    55 1   
@<TRIPOS>SUBSTRUCTURE
     1 6F8         1 TEMP              0 ****  ****    0 ROOT
