@<TRIPOS>MOLECULE
6F9
   70    73     1     0     0
SMALL
No Charge or Current Charge


@<TRIPOS>ATOM
      1 O3           5.6650     2.7630     1.3860 os         1 6F9      -0.342100
      2 C4          -1.2200    -3.9580     0.3700 c3         1 6F9       0.138600
      3 C5          -0.2830    -1.8300     1.1590 ca         1 6F9       0.156100
      4 O4           3.0050    -3.8560    -1.1910 o          1 6F9      -0.588100
      5 C6           1.1160    -2.0120     1.0710 ca         1 6F9      -0.148300
      6 N1          -2.8210     0.8230     0.5180 ns         1 6F9      -0.508900
      7 C7           1.7420    -3.3860     1.2560 c3         1 6F9       0.142300
      8 C8           1.9500    -0.9090     0.8180 ca         1 6F9      -0.042000
      9 N2          -6.4820     0.9430    -0.5990 n3         1 6F9      -0.712600
     10 C9           1.4200     0.3910     0.6610 cp         1 6F9      -0.053000
     11 C10          0.0200     0.5560     0.7740 ca         1 6F9      -0.058000
     12 C11         -0.8470    -0.5370     1.0250 ca         1 6F9      -0.172600
     13 C12         -2.3410    -0.3100     1.1410 c          1 6F9       0.621700
     14 C13         -4.2240     1.2670     0.5090 c6         1 6F9       0.109700
     15 C14         -4.2960     2.7790     0.1880 c6         1 6F9      -0.088400
     16 C15         -5.7690     3.2450     0.0990 c6         1 6F9      -0.073400
     17 C1           1.4250    -5.4530    -2.0600 c3         1 6F9      -0.153400
     18 C            2.2270    -5.5270    -3.3800 c3         1 6F9      -0.078100
     19 N            1.2770    -4.3460     0.2400 n          1 6F9      -0.406800
     20 C19          2.3160     1.5620     0.3980 cp         1 6F9       0.038000
     21 C24          1.9150     2.6120    -0.4610 ca         1 6F9      -0.175000
     22 C23          2.7480     3.7110    -0.7130 ca         1 6F9       0.179100
     23 O2           2.2770     4.6880    -1.5670 os         1 6F9      -0.342100
     24 C25          3.0460     5.8580    -1.8980 c3         1 6F9       0.149900
     25 C22          4.0160     3.7850    -0.1030 ca         1 6F9      -0.284000
     26 C21          4.4370     2.7500     0.7560 ca         1 6F9       0.179100
     27 C26          6.6090     3.8350     1.2120 c3         1 6F9       0.149900
     28 C20          3.5940     1.6570     0.9970 ca         1 6F9      -0.175000
     29 O           -1.1070    -2.9170     1.3640 os         1 6F9      -0.347100
     30 C3          -0.0490    -4.9550     0.5080 c3         1 6F9       0.064000
     31 O1          -3.0930    -1.0340     1.7780 o          1 6F9      -0.573100
     32 C18         -5.0660     0.4740    -0.5360 c6         1 6F9       0.147800
     33 C17         -7.3070     0.1190    -1.5080 c3         1 6F9       0.155100
     34 C16         -6.5610     2.3930    -0.9230 c6         1 6F9       0.163800
     35 H1          -2.1570    -4.5100     0.5200 h1         1 6F9       0.057200
     36 H2          -1.2400    -3.5350    -0.6420 h1         1 6F9       0.057200
     37 H3          -2.1490     1.3650    -0.0080 hn         1 6F9       0.311500
     38 H4           2.8370    -3.3150     1.2320 h1         1 6F9       0.072700
     39 H5           1.4770    -3.7630     2.2530 h1         1 6F9       0.072700
     40 H6           3.0230    -1.0620     0.7300 ha         1 6F9       0.132000
     41 H8          -0.3810     1.5630     0.6990 ha         1 6F9       0.126000
     42 H9          -4.6560     1.0950     1.5070 h1         1 6F9       0.094700
     43 H10         -3.7690     3.3550     0.9610 hc         1 6F9       0.043200
     44 H11         -3.7880     2.9860    -0.7640 hc         1 6F9       0.043200
     45 H12         -6.2440     3.1690     1.0860 hc         1 6F9       0.051200
     46 H13         -5.8110     4.3040    -0.1890 hc         1 6F9       0.051200
     47 H14          1.3300    -6.4440    -1.6020 hc         1 6F9       0.054700
     48 H15          0.3760    -5.1970    -2.2500 hc         1 6F9       0.054700
     49 H16          3.2560    -5.8580    -3.1920 hc         1 6F9       0.042700
     50 H17          1.7600    -6.2370    -4.0720 hc         1 6F9       0.042700
     51 H18          2.2620    -4.5450    -3.8680 hc         1 6F9       0.042700
     52 H19          0.9480     2.5700    -0.9530 ha         1 6F9       0.130500
     53 H20          3.2720     6.4440    -0.9980 h1         1 6F9       0.040533
     54 H21          3.9900     5.5800    -2.3830 h1         1 6F9       0.040533
     55 H22          2.4850     6.4990    -2.5890 h1         1 6F9       0.040533
     56 H23          4.6640     4.6320    -0.2940 ha         1 6F9       0.121000
     57 H24          6.1820     4.7890     1.5460 h1         1 6F9       0.040533
     58 H25          7.5140     3.6430     1.8020 h1         1 6F9       0.040533
     59 H26          6.9030     3.9280     0.1590 h1         1 6F9       0.040533
     60 H27          3.9340     0.8780     1.6740 ha         1 6F9       0.130500
     61 H28         -0.0500    -5.3510     1.5320 h1         1 6F9       0.063200
     62 H29         -0.2340    -5.8130    -0.1480 h1         1 6F9       0.063200
     63 H30         -5.0380    -0.5930    -0.2700 h1         1 6F9       0.035700
     64 H31         -4.5920     0.5700    -1.5240 h1         1 6F9       0.035700
     65 H32         -6.9440     0.1910    -2.5420 h1         1 6F9       0.030367
     66 H33         -7.2790    -0.9370    -1.2060 h1         1 6F9       0.030367
     67 H34         -8.3550     0.4480    -1.4860 h1         1 6F9       0.030367
     68 H35         -6.1620     2.5800    -1.9310 h1         1 6F9       0.030700
     69 H36         -7.6090     2.7270    -0.9230 h1         1 6F9       0.030700
     70 C2           1.9730    -4.4850    -0.9890 c          1 6F9       0.597100
@<TRIPOS>BOND
     1     1    26 1   
     2     1    27 1   
     3     2    29 1   
     4     2    30 1   
     5     2    35 1   
     6     2    36 1   
     7     3     5 ar  
     8     3    12 ar  
     9     3    29 1   
    10     4    70 2   
    11     5     7 1   
    12     5     8 ar  
    13     6    13 1   
    14     6    14 1   
    15     6    37 1   
    16     7    19 1   
    17     7    38 1   
    18     7    39 1   
    19     8    10 ar  
    20     8    40 1   
    21     9    32 1   
    22     9    33 1   
    23     9    34 1   
    24    10    11 ar  
    25    10    20 1   
    26    11    12 ar  
    27    11    41 1   
    28    12    13 1   
    29    13    31 2   
    30    14    15 1   
    31    14    32 1   
    32    14    42 1   
    33    15    16 1   
    34    15    43 1   
    35    15    44 1   
    36    16    34 1   
    37    16    45 1   
    38    16    46 1   
    39    17    18 1   
    40    17    47 1   
    41    17    48 1   
    42    17    70 1   
    43    18    49 1   
    44    18    50 1   
    45    18    51 1   
    46    19    30 1   
    47    19    70 1   
    48    20    21 ar  
    49    20    28 ar  
    50    21    22 ar  
    51    21    52 1   
    52    22    23 1   
    53    22    25 ar  
    54    23    24 1   
    55    24    53 1   
    56    24    54 1   
    57    24    55 1   
    58    25    26 ar  
    59    25    56 1   
    60    26    28 ar  
    61    27    57 1   
    62    27    58 1   
    63    27    59 1   
    64    28    60 1   
    65    30    61 1   
    66    30    62 1   
    67    32    63 1   
    68    32    64 1   
    69    33    65 1   
    70    33    66 1   
    71    33    67 1   
    72    34    68 1   
    73    34    69 1   
@<TRIPOS>SUBSTRUCTURE
     1 6F9         1 TEMP              0 ****  ****    0 ROOT
