@<TRIPOS>MOLECULE
6F9
   70    73     1     0     0
SMALL
bcc


@<TRIPOS>ATOM
      1 O3           5.8710     2.5490     1.5600 os         1 6F9      -0.318900
      2 C4          -1.3970    -3.4340     0.4050 c3         1 6F9       0.115400
      3 C5          -0.2660    -1.5080     1.2240 ca         1 6F9       0.156100
      4 O4           2.5530    -3.3800    -1.3450 o          1 6F9      -0.588100
      5 C6           1.0910    -1.8020     1.0770 ca         1 6F9      -0.148300
      6 N1          -2.7480     0.7010     0.3110 ns         1 6F9      -0.575900
      7 C7           1.5620    -3.2300     1.1500 c3         1 6F9       0.142300
      8 C8           1.9830    -0.7640     0.8570 ca         1 6F9      -0.060000
      9 N2          -6.3880     0.3720    -0.3900 n3         1 6F9      -0.712600
     10 C9           1.5640     0.5640     0.7830 cp         1 6F9      -0.053000
     11 C10          0.2060     0.8330     0.9300 ca         1 6F9      -0.076000
     12 C11         -0.7060    -0.1890     1.1540 ca         1 6F9      -0.172600
     13 C12         -2.1560     0.1270     1.3690 c          1 6F9       0.688700
     14 C13         -4.1390     1.1000     0.2690 c6         1 6F9       0.109700
     15 C14         -4.3000     2.3730    -0.5500 c6         1 6F9      -0.088400
     16 C15         -5.7760     2.7210    -0.6900 c6         1 6F9      -0.073400
     17 C1           0.8120    -4.7500    -2.2470 c3         1 6F9      -0.153400
     18 C            1.5560    -4.6900    -3.5700 c3         1 6F9      -0.078100
     19 N            0.9760    -4.0540     0.1070 n          1 6F9      -0.473800
     20 C19          2.5310     1.6560     0.5460 cp         1 6F9       0.038000
     21 C24          2.1870     2.7210    -0.2800 ca         1 6F9      -0.193000
     22 C23          3.0970     3.7520    -0.5000 ca         1 6F9       0.179100
     23 O2           2.6860     4.7350    -1.3210 os         1 6F9      -0.318900
     24 C25          3.5700     5.7990    -1.6130 c3         1 6F9       0.126700
     25 C22          4.3550     3.7290     0.1020 ca         1 6F9      -0.302000
     26 C21          4.6890     2.6560     0.9270 ca         1 6F9       0.179100
     27 C26          6.8280     3.5790     1.4090 c3         1 6F9       0.126700
     28 C20          3.7840     1.6220     1.1490 ca         1 6F9      -0.193000
     29 O           -1.1830    -2.4840     1.4470 os         1 6F9      -0.323900
     30 C3          -0.3580    -4.5420     0.3920 c3         1 6F9       0.064000
     31 O1          -2.7150    -0.1020     2.4300 o          1 6F9      -0.573100
     32 C18         -4.9970    -0.0230    -0.3130 c6         1 6F9       0.147800
     33 C17         -7.2250    -0.7270    -0.8140 c3         1 6F9       0.155100
     34 C16         -6.5620     1.5390    -1.2350 c6         1 6F9       0.163800
     35 H1          -2.3790    -3.8680     0.5920 h1         1 6F9       0.057200
     36 H2          -1.4320    -2.9280    -0.5650 h1         1 6F9       0.057200
     37 H3          -2.2160     0.7820    -0.5420 hn         1 6F9       0.311500
     38 H4           2.6470    -3.2710     1.0860 h1         1 6F9       0.072700
     39 H5           1.2830    -3.6670     2.1120 h1         1 6F9       0.072700
     40 H6           3.0310    -1.0020     0.7200 ha         1 6F9       0.150000
     41 H8          -0.1460     1.8570     0.8930 ha         1 6F9       0.144000
     42 H9          -4.4640     1.2910     1.2940 h1         1 6F9       0.094700
     43 H10         -3.7470     3.1920    -0.0860 hc         1 6F9       0.043200
     44 H11         -3.8700     2.2180    -1.5470 hc         1 6F9       0.043200
     45 H12         -6.1840     3.0030     0.2850 hc         1 6F9       0.051200
     46 H13         -5.9000     3.5800    -1.3510 hc         1 6F9       0.051200
     47 H14          0.6740    -5.7920    -1.9460 hc         1 6F9       0.054700
     48 H15         -0.1970    -4.3440    -2.3730 hc         1 6F9       0.054700
     49 H16          2.5500    -5.1280    -3.4930 hc         1 6F9       0.042700
     50 H17          1.0050    -5.2480    -4.3270 hc         1 6F9       0.042700
     51 H18          1.6660    -3.6670    -3.9260 hc         1 6F9       0.042700
     52 H19          1.2260     2.7500    -0.7790 ha         1 6F9       0.148500
     53 H20          3.8410     6.3650    -0.7170 h1         1 6F9       0.040533
     54 H21          4.4840     5.4500    -2.1010 h1         1 6F9       0.040533
     55 H22          3.0410     6.4600    -2.2950 h1         1 6F9       0.040533
     56 H23          5.0590     4.5310    -0.0670 ha         1 6F9       0.139000
     57 H24          6.4470     4.5450     1.7530 h1         1 6F9       0.040533
     58 H25          7.6800     3.3000     2.0240 h1         1 6F9       0.040533
     59 H26          7.1620     3.6810     0.3740 h1         1 6F9       0.040533
     60 H27          4.0590     0.8120     1.8140 ha         1 6F9       0.148500
     61 H28         -0.3440    -5.0420     1.3630 h1         1 6F9       0.063200
     62 H29         -0.6600    -5.2950    -0.3330 h1         1 6F9       0.063200
     63 H30         -4.9160    -0.9060     0.3260 h1         1 6F9       0.035700
     64 H31         -4.5920    -0.3000    -1.3050 h1         1 6F9       0.035700
     65 H32         -6.9760    -1.1040    -1.8180 h1         1 6F9       0.030367
     66 H33         -7.1340    -1.5600    -0.1140 h1         1 6F9       0.030367
     67 H34         -8.2710    -0.4150    -0.8270 h1         1 6F9       0.030367
     68 H35         -6.2430     1.3370    -2.2740 h1         1 6F9       0.030700
     69 H36         -7.6260     1.7860    -1.2740 h1         1 6F9       0.030700
     70 C2           1.5200    -3.9970    -1.1380 c          1 6F9       0.664100
@<TRIPOS>BOND
     1     1    26 1   
     2     1    27 1   
     3     2    29 1   
     4     2    30 1   
     5     2    35 1   
     6     2    36 1   
     7     3     5 ar  
     8     3    12 ar  
     9     3    29 1   
    10     4    70 2   
    11     5     7 1   
    12     5     8 ar  
    13     6    13 1   
    14     6    14 1   
    15     6    37 1   
    16     7    19 1   
    17     7    38 1   
    18     7    39 1   
    19     8    10 ar  
    20     8    40 1   
    21     9    32 1   
    22     9    33 1   
    23     9    34 1   
    24    10    11 ar  
    25    10    20 1   
    26    11    12 ar  
    27    11    41 1   
    28    12    13 1   
    29    13    31 2   
    30    14    15 1   
    31    14    32 1   
    32    14    42 1   
    33    15    16 1   
    34    15    43 1   
    35    15    44 1   
    36    16    34 1   
    37    16    45 1   
    38    16    46 1   
    39    17    18 1   
    40    17    47 1   
    41    17    48 1   
    42    17    70 1   
    43    18    49 1   
    44    18    50 1   
    45    18    51 1   
    46    19    30 1   
    47    19    70 1   
    48    20    21 ar  
    49    20    28 ar  
    50    21    22 ar  
    51    21    52 1   
    52    22    23 1   
    53    22    25 ar  
    54    23    24 1   
    55    24    53 1   
    56    24    54 1   
    57    24    55 1   
    58    25    26 ar  
    59    25    56 1   
    60    26    28 ar  
    61    27    57 1   
    62    27    58 1   
    63    27    59 1   
    64    28    60 1   
    65    30    61 1   
    66    30    62 1   
    67    32    63 1   
    68    32    64 1   
    69    33    65 1   
    70    33    66 1   
    71    33    67 1   
    72    34    68 1   
    73    34    69 1   
@<TRIPOS>SUBSTRUCTURE
     1 6F9         1 TEMP              0 ****  ****    0 ROOT
