@<TRIPOS>MOLECULE
6FA
   85    90     1     0     0
SMALL
No Charge or Current Charge


@<TRIPOS>ATOM
      1 N1          -1.5740     2.0270    -1.8080 nc         1 6FA      -0.453400
      2 C2          -2.0430     3.1490    -1.1580 c          1 6FA       0.733400
      3 O2          -2.5330     3.1000    -0.0440 o          1 6FA      -0.519000
      4 N3          -1.9430     4.3320    -1.8190 ns         1 6FA      -0.498500
      5 C4          -1.4240     4.5580    -3.0630 c          1 6FA       0.491500
      6 O4          -1.4040     5.6890    -3.5320 o          1 6FA      -0.525000
      7 C4A         -0.9140     3.3160    -3.7380 cd         1 6FA       0.194500
      8 N5          -0.3860     3.4170    -4.9660 nc         1 6FA      -0.557000
      9 C5A          0.1010     2.1910    -5.4660 ca         1 6FA       0.060000
     10 C6           0.7250     2.2460    -6.7360 ca         1 6FA       0.234100
     11 O6           0.7730     3.4620    -7.3570 oh         1 6FA      -0.527100
     12 C7           1.2950     1.1090    -7.3460 ca         1 6FA      -0.171300
     13 C7M          1.9710     1.2010    -8.7220 c3         1 6FA      -0.025800
     14 C8           1.2600    -0.1150    -6.6500 ca         1 6FA       0.032700
     15 C8M          1.8950    -1.3770    -7.2300 c3         1 6FA      -0.059800
     16 C9           0.6330    -0.1840    -5.3950 ca         1 6FA      -0.173000
     17 C9A          0.0270     0.9450    -4.7850 ca         1 6FA       0.082000
     18 N10         -0.6230     0.8260    -3.5330 na         1 6FA       0.014000
     19 C10         -1.0300     2.0680    -3.0220 cd         1 6FA       0.122000
     20 C1          -0.9040    -0.4860    -2.8800 c3         1 6FA       0.058600
     21 C11          0.1150    -0.8590    -1.7680 c3         1 6FA       0.145300
     22 O7           1.3890    -1.1740    -2.3460 oh         1 6FA      -0.767000
     23 C3          -0.3430    -2.0650    -0.8840 c3         1 6FA       0.110300
     24 O3          -1.6110    -1.7550    -0.2760 oh         1 6FA      -0.673000
     25 C12          0.7220    -2.4440     0.2070 c3         1 6FA       0.140300
     26 O8           1.9640    -2.8110    -0.4550 oh         1 6FA      -0.839000
     27 C5           0.2470    -3.5930     1.1700 c3         1 6FA       0.196600
     28 O5           0.9040    -3.5670     2.4610 os         1 6FA      -0.577400
     29 P            2.4870    -3.3570     2.6890 p5         1 6FA       1.474800
     30 O1P          2.8980    -4.0500     3.9440 o          1 6FA      -0.830500
     31 O2P          3.2000    -3.8470     1.4710 o          1 6FA      -0.830500
     32 O3P          2.4650    -1.7880     2.7770 os         1 6FA      -0.683800
     33 PA           3.7860    -1.1990     3.3970 p5         1 6FA       1.459800
     34 O1A          3.7160    -1.0530     4.8820 o          1 6FA      -0.845000
     35 O2A          5.0410    -1.8760     2.9540 o          1 6FA      -0.845000
     36 O5B          3.7220     0.2510     2.6910 os         1 6FA      -0.562400
     37 C5B          2.8190     1.2610     3.1620 c3         1 6FA       0.214600
     38 C4B          1.7880     1.6130     2.0440 c5         1 6FA       0.157300
     39 O4B          0.6740     0.6840     2.0440 os         1 6FA      -0.408000
     40 C3B          1.0950     2.9970     2.2600 c5         1 6FA       0.098300
     41 O3B          0.4040     3.4700     1.0990 oh         1 6FA      -0.711000
     42 C2B          0.0810     2.6170     3.3790 c5         1 6FA       0.068300
     43 O2B         -0.9970     3.5730     3.4570 oh         1 6FA      -0.706000
     44 C1B         -0.3720     1.1830     2.9090 c5         1 6FA       0.323300
     45 N9A         -0.6880     0.1710     3.9210 na         1 6FA      -0.292300
     46 C8A         -0.1750     0.0940     5.2240 cc         1 6FA       0.461700
     47 N7A         -0.7030    -0.9480     5.9000 nd         1 6FA      -0.565100
     48 C5X         -1.5590    -1.5370     4.9650 ca         1 6FA      -0.080600
     49 C6A         -2.3880    -2.6720     5.0950 ca         1 6FA       0.430900
     50 N6A         -2.4700    -3.4000     6.2410 nv         1 6FA      -1.073900
     51 N1A         -3.1660    -3.0830     4.0800 nb         1 6FA      -0.325000
     52 C2A         -3.0970    -2.3500     2.9420 ca         1 6FA       0.146900
     53 N3A         -2.3310    -1.2520     2.7310 nb         1 6FA      -0.210000
     54 C4X         -1.5620    -0.8670     3.7680 ca         1 6FA       0.109500
     55 HN3         -2.2960     5.1360    -1.3260 hn         1 6FA       0.329500
     56 HO6          0.3290     4.0700    -6.7210 ho         1 6FA       0.503000
     57 HM71         3.0630     1.1800    -8.6210 hc         1 6FA       0.039700
     58 HM72         1.6790     0.3650    -9.3690 hc         1 6FA       0.039700
     59 HM73         1.7100     2.1150    -9.2680 hc         1 6FA       0.039700
     60 HM81         1.3470    -1.7210    -8.1160 hc         1 6FA       0.051700
     61 HM82         2.9360    -1.1990    -7.5230 hc         1 6FA       0.051700
     62 HM83         1.9000    -2.2030    -6.5090 hc         1 6FA       0.051700
     63 H9           0.6440    -1.1450    -4.8930 ha         1 6FA       0.152000
     64 H1'1        -1.9040    -0.4230    -2.4350 h1         1 6FA       0.077200
     65 H1'2        -0.9750    -1.2900    -3.6190 h1         1 6FA       0.077200
     66 H2           0.2240     0.0080    -1.1010 h1         1 6FA       0.056700
     67 HO2          1.7780    -1.8330    -1.6800 ho         1 6FA       0.577000
     68 H3          -0.4680    -2.9360    -1.5440 h1         1 6FA       0.069700
     69 HO3         -1.4420    -1.1590     0.4870 ho         1 6FA       0.448000
     70 H4           0.8800    -1.5440     0.8140 h1         1 6FA       0.039700
     71 HO4          2.5390    -3.2710     0.2590 ho         1 6FA       0.618000
     72 H5'1        -0.8330    -3.5080     1.3360 h1         1 6FA       0.022700
     73 H5'2         0.4110    -4.5620     0.6810 h1         1 6FA       0.022700
     74 H51A         2.2920     0.9460     4.0700 h1         1 6FA       0.012200
     75 H52A         3.3910     2.1640     3.4090 h1         1 6FA       0.012200
     76 H4B          2.3010     1.5730     1.0740 h1         1 6FA       0.097700
     77 H3B          1.8110     3.7550     2.6080 h1         1 6FA       0.047700
     78 HO3A        -0.4980     3.6980     1.4350 ho         1 6FA       0.502000
     79 H2B          0.6030     2.5630     4.3440 h1         1 6FA       0.072700
     80 HO2A        -0.7160     4.2980     4.0650 ho         1 6FA       0.499000
     81 H1B         -1.2860     1.2890     2.3090 h2         1 6FA       0.097700
     82 H8A          0.5500     0.7980     5.6180 h5         1 6FA       0.151800
     83 H61A        -3.2730    -4.0100     6.3630 hn         1 6FA       0.494500
     84 H62A        -2.0660    -2.9930     7.0810 hn         1 6FA       0.494500
     85 H2A         -3.7220    -2.6760     2.1130 h5         1 6FA       0.023100
@<TRIPOS>BOND
     1     1     2 1   
     2     1    19 2   
     3     2     3 2   
     4     2     4 1   
     5     4     5 1   
     6     4    55 1   
     7     5     6 2   
     8     5     7 1   
     9     7     8 2   
    10     7    19 1   
    11     8     9 1   
    12     9    10 ar  
    13     9    17 ar  
    14    10    11 1   
    15    10    12 ar  
    16    11    56 1   
    17    12    13 1   
    18    12    14 ar  
    19    13    57 1   
    20    13    58 1   
    21    13    59 1   
    22    14    15 1   
    23    14    16 ar  
    24    15    60 1   
    25    15    61 1   
    26    15    62 1   
    27    16    17 ar  
    28    16    63 1   
    29    17    18 1   
    30    18    19 1   
    31    18    20 1   
    32    20    21 1   
    33    20    64 1   
    34    20    65 1   
    35    21    22 1   
    36    21    23 1   
    37    21    66 1   
    38    22    67 1   
    39    23    24 1   
    40    23    25 1   
    41    23    68 1   
    42    24    69 1   
    43    25    26 1   
    44    25    27 1   
    45    25    70 1   
    46    26    71 1   
    47    27    28 1   
    48    27    72 1   
    49    27    73 1   
    50    28    29 1   
    51    29    30 1   
    52    29    31 1   
    53    29    32 1   
    54    32    33 1   
    55    33    34 1   
    56    33    35 1   
    57    33    36 1   
    58    36    37 1   
    59    37    38 1   
    60    37    74 1   
    61    37    75 1   
    62    38    39 1   
    63    38    40 1   
    64    38    76 1   
    65    39    44 1   
    66    40    41 1   
    67    40    42 1   
    68    40    77 1   
    69    41    78 1   
    70    42    43 1   
    71    42    44 1   
    72    42    79 1   
    73    43    80 1   
    74    44    45 1   
    75    44    81 1   
    76    45    46 1   
    77    45    54 1   
    78    46    47 2   
    79    46    82 1   
    80    47    48 1   
    81    48    49 ar  
    82    48    54 ar  
    83    49    50 1   
    84    49    51 ar  
    85    50    83 1   
    86    50    84 1   
    87    51    52 ar  
    88    52    53 ar  
    89    52    85 1   
    90    53    54 ar  
@<TRIPOS>SUBSTRUCTURE
     1 6FA         1 TEMP              0 ****  ****    0 ROOT
