@<TRIPOS>MOLECULE
6FA
   85    90     1     0     0
SMALL
abcg2


@<TRIPOS>ATOM
      1 N1          -2.6740     1.4700    -5.2530 nc         1 6FA      -0.453400
      2 C2          -3.6130     2.4510    -5.2440 c          1 6FA       0.733400
      3 O2          -4.5030     2.4960    -4.4170 o          1 6FA      -0.519000
      4 N3          -3.5530     3.4500    -6.2190 ns         1 6FA      -0.498500
      5 C4          -2.6360     3.5520    -7.2220 c          1 6FA       0.491500
      6 O4          -2.6430     4.4420    -8.0430 o          1 6FA      -0.525000
      7 C4A         -1.6370     2.4650    -7.2040 cd         1 6FA       0.194500
      8 N5          -0.7180     2.4470    -8.1110 nc         1 6FA      -0.557000
      9 C5A          0.1910     1.4630    -8.0940 ca         1 6FA       0.060000
     10 C6           1.1790     1.4830    -9.1130 ca         1 6FA       0.234100
     11 O6           1.1470     2.4620   -10.0160 oh         1 6FA      -0.527100
     12 C7           2.1510     0.5050    -9.1690 ca         1 6FA      -0.171300
     13 C7M          3.2030     0.4970   -10.2380 c3         1 6FA      -0.025800
     14 C8           2.1300    -0.4990    -8.1760 ca         1 6FA       0.032700
     15 C8M          3.1790    -1.5670    -8.2040 c3         1 6FA      -0.059800
     16 C9           1.1750    -0.5300    -7.1710 ca         1 6FA      -0.173000
     17 C9A          0.1830     0.4430    -7.1180 ca         1 6FA       0.082000
     18 N10         -0.8280     0.4710    -6.1840 na         1 6FA       0.014000
     19 C10         -1.7490     1.4700    -6.1710 cd         1 6FA       0.122000
     20 C1          -0.9490    -0.5780    -5.1710 c3         1 6FA       0.058600
     21 C11         -0.2850    -0.1720    -3.8570 c3         1 6FA       0.145300
     22 O7           1.0030     0.2950    -4.1540 oh         1 6FA      -0.767000
     23 C3          -0.2540    -1.3810    -2.9040 c3         1 6FA       0.110300
     24 O3          -1.5160    -2.0040    -2.8260 oh         1 6FA      -0.673000
     25 C12          0.2500    -1.0110    -1.4960 c3         1 6FA       0.140300
     26 O8           1.3850    -0.1790    -1.5950 oh         1 6FA      -0.839000
     27 C5           0.5110    -2.2850    -0.7010 c3         1 6FA       0.196600
     28 O5           0.7880    -2.0150     0.6650 os         1 6FA      -0.577400
     29 P            2.3560    -1.9310     1.1360 p5         1 6FA       1.474800
     30 O1P          2.8760    -3.2780     1.5100 o          1 6FA      -0.830500
     31 O2P          3.0980    -1.1090     0.1030 o          1 6FA      -0.830500
     32 O3P          2.0520    -1.0300     2.4600 os         1 6FA      -0.683800
     33 PA           3.0520    -0.9730     3.7680 p5         1 6FA       1.459800
     34 O1A          2.5890    -1.9480     4.8080 o          1 6FA      -0.845000
     35 O2A          4.4770    -0.9650     3.3170 o          1 6FA      -0.845000
     36 O5B          2.5810     0.5440     4.1870 os         1 6FA      -0.562400
     37 C5B          2.8780     1.0120     5.4810 c3         1 6FA       0.214600
     38 C4B          1.8100     2.0060     5.9010 c5         1 6FA       0.157300
     39 O4B          0.5060     1.4270     5.7980 os         1 6FA      -0.408000
     40 C3B          1.9650     2.4120     7.3580 c5         1 6FA       0.098300
     41 O3B          1.3820     3.6750     7.5420 oh         1 6FA      -0.711000
     42 C2B          1.1390     1.3200     8.0450 c5         1 6FA       0.068300
     43 O2B          0.6610     1.6470     9.3140 oh         1 6FA      -0.706000
     44 C1B         -0.0260     1.1750     7.0650 c5         1 6FA       0.323300
     45 N9A         -0.6350    -0.1330     7.0770 na         1 6FA      -0.292300
     46 C8A         -0.1050    -1.3030     6.5970 cc         1 6FA       0.461700
     47 N7A         -0.8890    -2.3270     6.7760 nd         1 6FA      -0.565100
     48 C5X         -1.9910    -1.8130     7.4080 ca         1 6FA      -0.080600
     49 C6A         -3.1870    -2.3910     7.8700 ca         1 6FA       0.430900
     50 N6A         -3.4580    -3.6930     7.7390 nv         1 6FA      -1.073900
     51 N1A         -4.0900    -1.5900     8.4460 nb         1 6FA      -0.325000
     52 C2A         -3.8250    -0.2910     8.5570 ca         1 6FA       0.146900
     53 N3A         -2.7440     0.3630     8.1720 nb         1 6FA      -0.210000
     54 C4X         -1.8550    -0.4470     7.6010 ca         1 6FA       0.109500
     55 HN3         -4.2700     4.1640    -6.1750 hn         1 6FA       0.329500
     56 HO6          0.4010     3.0520    -9.8190 ho         1 6FA       0.503000
     57 HM71         4.2050     0.5150    -9.8060 hc         1 6FA       0.039700
     58 HM72         3.1370    -0.4060   -10.8490 hc         1 6FA       0.039700
     59 HM73         3.1190     1.3510   -10.9050 hc         1 6FA       0.039700
     60 HM81         3.1200    -2.1500    -9.1260 hc         1 6FA       0.051700
     61 HM82         4.1820    -1.1370    -8.1680 hc         1 6FA       0.051700
     62 HM83         3.0720    -2.2500    -7.3650 hc         1 6FA       0.051700
     63 H9           1.2440    -1.3110    -6.4310 ha         1 6FA       0.152000
     64 H1'1        -2.0080    -0.7640    -5.0230 h1         1 6FA       0.077200
     65 H1'2        -0.5110    -1.4910    -5.5690 h1         1 6FA       0.077200
     66 H2          -0.8990     0.6190    -3.3970 h1         1 6FA       0.056700
     67 HO2          1.4690     0.3340    -3.3000 ho         1 6FA       0.577000
     68 H3           0.4230    -2.1250    -3.3430 h1         1 6FA       0.069700
     69 HO3         -2.1360    -1.3970    -2.4060 ho         1 6FA       0.448000
     70 H4          -0.5590    -0.4560    -0.9920 h1         1 6FA       0.039700
     71 HO4          2.1060    -0.4900    -0.9790 ho         1 6FA       0.618000
     72 H5'1        -0.3820    -2.9100    -0.7330 h1         1 6FA       0.022700
     73 H5'2         1.3160    -2.8590    -1.1770 h1         1 6FA       0.022700
     74 H51A         2.9330     0.1890     6.2030 h1         1 6FA       0.012200
     75 H52A         3.8480     1.5220     5.4990 h1         1 6FA       0.012200
     76 H4B          1.8450     2.8770     5.2400 h1         1 6FA       0.097700
     77 H3B          3.0160     2.3960     7.6790 h1         1 6FA       0.047700
     78 HO3A         1.1970     3.7850     8.4820 ho         1 6FA       0.502000
     79 H2B          1.7200     0.3890     8.0580 h1         1 6FA       0.072700
     80 HO2A         1.3430     1.4490     9.9640 ho         1 6FA       0.499000
     81 H1B         -0.8230     1.8840     7.3170 h2         1 6FA       0.097700
     82 H8A          0.8550    -1.3450     6.0950 h5         1 6FA       0.151800
     83 H61A        -4.2790    -4.0780     8.1720 hn         1 6FA       0.494500
     84 H62A        -2.7530    -4.3320     7.4150 hn         1 6FA       0.494500
     85 H2A         -4.6000     0.3040     9.0290 h5         1 6FA       0.023100
@<TRIPOS>BOND
     1     1     2 1   
     2     1    19 2   
     3     2     3 2   
     4     2     4 1   
     5     4     5 1   
     6     4    55 1   
     7     5     6 2   
     8     5     7 1   
     9     7     8 2   
    10     7    19 1   
    11     8     9 1   
    12     9    10 ar  
    13     9    17 ar  
    14    10    11 1   
    15    10    12 ar  
    16    11    56 1   
    17    12    13 1   
    18    12    14 ar  
    19    13    57 1   
    20    13    58 1   
    21    13    59 1   
    22    14    15 1   
    23    14    16 ar  
    24    15    60 1   
    25    15    61 1   
    26    15    62 1   
    27    16    17 ar  
    28    16    63 1   
    29    17    18 1   
    30    18    19 1   
    31    18    20 1   
    32    20    21 1   
    33    20    64 1   
    34    20    65 1   
    35    21    22 1   
    36    21    23 1   
    37    21    66 1   
    38    22    67 1   
    39    23    24 1   
    40    23    25 1   
    41    23    68 1   
    42    24    69 1   
    43    25    26 1   
    44    25    27 1   
    45    25    70 1   
    46    26    71 1   
    47    27    28 1   
    48    27    72 1   
    49    27    73 1   
    50    28    29 1   
    51    29    30 1   
    52    29    31 1   
    53    29    32 1   
    54    32    33 1   
    55    33    34 1   
    56    33    35 1   
    57    33    36 1   
    58    36    37 1   
    59    37    38 1   
    60    37    74 1   
    61    37    75 1   
    62    38    39 1   
    63    38    40 1   
    64    38    76 1   
    65    39    44 1   
    66    40    41 1   
    67    40    42 1   
    68    40    77 1   
    69    41    78 1   
    70    42    43 1   
    71    42    44 1   
    72    42    79 1   
    73    43    80 1   
    74    44    45 1   
    75    44    81 1   
    76    45    46 1   
    77    45    54 1   
    78    46    47 2   
    79    46    82 1   
    80    47    48 1   
    81    48    49 ar  
    82    48    54 ar  
    83    49    50 1   
    84    49    51 ar  
    85    50    83 1   
    86    50    84 1   
    87    51    52 ar  
    88    52    53 ar  
    89    52    85 1   
    90    53    54 ar  
@<TRIPOS>SUBSTRUCTURE
     1 6FA         1 TEMP              0 ****  ****    0 ROOT
