@<TRIPOS>MOLECULE
6FB
   23    25     1     0     0
SMALL
abcg2


@<TRIPOS>ATOM
      1 C4           0.4710     1.4780     0.0030 ca         1 6FB      -0.006000
      2 C5          -0.7700     0.8670    -0.0070 ca         1 6FB      -0.202000
      3 C6          -1.9940     1.5980    -0.0130 ca         1 6FB       0.179900
      4 N1          -3.1530     1.0330    -0.0240 nb         1 6FB      -0.222000
      5 C7          -3.1680    -0.3450    -0.0290 ca         1 6FB       0.396900
      6 C8          -0.8990    -0.5540    -0.0090 ca         1 6FB       0.092000
      7 N2          -4.3940    -0.8790    -0.0550 nv         1 6FB      -1.070900
      8 C9           0.2560    -1.3320    -0.0010 ca         1 6FB      -0.116000
      9 C10          1.5120    -0.7270     0.0090 ca         1 6FB       0.021000
     10 N3          -2.1230    -1.1350    -0.0190 nb         1 6FB      -0.274000
     11 C            2.7320    -1.4560     0.0170 ca         1 6FB      -0.154000
     12 C3           1.6240     0.6950     0.0110 ca         1 6FB      -0.135000
     13 C2           2.9250     1.2650     0.0210 ca         1 6FB       0.377900
     14 N            4.0240     0.5740     0.0280 nb         1 6FB      -0.669000
     15 C1           3.9150    -0.7850     0.0250 ca         1 6FB       0.329900
     16 H1           0.5460     2.5600     0.0050 ha         1 6FB       0.118000
     17 H2          -1.9630     2.6840    -0.0090 h4         1 6FB       0.023100
     18 H3          -5.2050    -0.2900     0.0080 hn         1 6FB       0.506500
     19 H4          -4.5160    -1.8750    -0.0030 hn         1 6FB       0.506500
     20 H5           0.1700    -2.4120    -0.0020 ha         1 6FB       0.136000
     21 H6           2.7180    -2.5380     0.0160 ha         1 6FB       0.126000
     22 H7           3.0160     2.3490     0.0220 h4         1 6FB       0.016100
     23 H8           4.8510    -1.3300     0.0320 h4         1 6FB       0.019100
@<TRIPOS>BOND
     1     1     2 ar  
     2     1    12 ar  
     3     1    16 1   
     4     2     3 ar  
     5     2     6 ar  
     6     3     4 ar  
     7     3    17 1   
     8     4     5 ar  
     9     5     7 1   
    10     5    10 ar  
    11     6     8 ar  
    12     6    10 ar  
    13     7    18 1   
    14     7    19 1   
    15     8     9 ar  
    16     8    20 1   
    17     9    11 ar  
    18     9    12 ar  
    19    11    15 ar  
    20    11    21 1   
    21    12    13 ar  
    22    13    14 ar  
    23    13    22 1   
    24    14    15 ar  
    25    15    23 1   
@<TRIPOS>SUBSTRUCTURE
     1 6FB         1 TEMP              0 ****  ****    0 ROOT
