@<TRIPOS>MOLECULE
6FB
   23    25     1     0     0
SMALL
No Charge or Current Charge


@<TRIPOS>ATOM
      1 C4           0.4690     1.4870     0.0030 ca         1 6FB      -0.006000
      2 C5          -0.7930     0.8650    -0.0250 ca         1 6FB      -0.202000
      3 C6          -1.9790     1.6260    -0.0380 ca         1 6FB       0.179900
      4 N1          -3.1910     1.0390    -0.0650 nb         1 6FB      -0.222000
      5 C7          -3.1920    -0.3020    -0.0800 ca         1 6FB       0.396900
      6 C8          -0.9100    -0.5450    -0.0410 ca         1 6FB       0.092000
      7 N2          -4.4060    -0.9050    -0.1040 nv         1 6FB      -1.070900
      8 C9           0.2600    -1.3250    -0.0280 ca         1 6FB      -0.116000
      9 C10          1.5240    -0.7090     0.0000 ca         1 6FB       0.021000
     10 N3          -2.1300    -1.1230    -0.0680 nb         1 6FB      -0.274000
     11 C            2.7070    -1.4650     0.0140 ca         1 6FB      -0.154000
     12 C3           1.6310     0.6940     0.0160 ca         1 6FB      -0.135000
     13 C2           2.9120     1.2780     0.0440 ca         1 6FB       0.377900
     14 N            4.0550     0.5500     0.0570 nb         1 6FB      -0.669000
     15 C1           3.9440    -0.7990     0.0420 ca         1 6FB       0.329900
     16 H1           0.5460     2.5730     0.0150 ha         1 6FB       0.118000
     17 H2          -1.9600     2.7150    -0.0270 h4         1 6FB       0.023100
     18 H3          -5.2270    -0.3480     0.1230 hn         1 6FB       0.506500
     19 H4          -4.4570    -1.8980     0.1140 hn         1 6FB       0.506500
     20 H5           0.1840    -2.4090    -0.0400 ha         1 6FB       0.136000
     21 H6           2.6790    -2.5510     0.0030 ha         1 6FB       0.126000
     22 H7           3.0320     2.3610     0.0570 h4         1 6FB       0.016100
     23 H8           4.8760    -1.3620     0.0530 h4         1 6FB       0.019100
@<TRIPOS>BOND
     1     1     2 ar  
     2     1    12 ar  
     3     1    16 1   
     4     2     3 ar  
     5     2     6 ar  
     6     3     4 ar  
     7     3    17 1   
     8     4     5 ar  
     9     5     7 1   
    10     5    10 ar  
    11     6     8 ar  
    12     6    10 ar  
    13     7    18 1   
    14     7    19 1   
    15     8     9 ar  
    16     8    20 1   
    17     9    11 ar  
    18     9    12 ar  
    19    11    15 ar  
    20    11    21 1   
    21    12    13 ar  
    22    13    14 ar  
    23    13    22 1   
    24    14    15 ar  
    25    15    23 1   
@<TRIPOS>SUBSTRUCTURE
     1 6FB         1 TEMP              0 ****  ****    0 ROOT
