@<TRIPOS>MOLECULE
6FD
   25    27     1     0     0
SMALL
abcg2


@<TRIPOS>ATOM
      1 C4           0.4760     1.6550    -0.0170 ca         1 6FD      -0.081000
      2 C5          -0.7680     1.0410    -0.0070 ca         1 6FD      -0.144000
      3 C6          -1.9950     1.7640    -0.0230 ca         1 6FD       0.167900
      4 N1          -3.1570     1.2010    -0.0250 nb         1 6FD      -0.213000
      5 C7          -3.1780    -0.1740    -0.0130 ca         1 6FD       0.380900
      6 C8          -0.9060    -0.3680     0.0180 ca         1 6FD       0.008000
      7 N2          -4.4070    -0.7130    -0.0550 nv         1 6FD      -1.072900
      8 C9           0.2380    -1.1910     0.0440 ca         1 6FD       0.316000
      9 C10          1.5030    -0.5720     0.0450 ca         1 6FD      -0.058000
     10 N3          -2.1290    -0.9540     0.0130 nb         1 6FD      -0.277000
     11 N4           0.0820    -2.5500     0.1200 nv         1 6FD      -1.055000
     12 C            2.7260    -1.2960     0.0920 ca         1 6FD      -0.135000
     13 C3           1.6100     0.8520     0.0050 ca         1 6FD      -0.078000
     14 C2           2.9170     1.4160    -0.0050 ca         1 6FD       0.362900
     15 N            4.0180     0.7290     0.0280 nb         1 6FD      -0.659000
     16 C1           3.9110    -0.6280     0.0820 ca         1 6FD       0.307900
     17 H1           0.5610     2.7350    -0.0430 ha         1 6FD       0.122000
     18 H2          -1.9660     2.8510    -0.0340 h4         1 6FD       0.023100
     19 H3          -5.2120    -0.1250     0.0660 hn         1 6FD       0.500500
     20 H4          -4.5220    -1.7040     0.0660 hn         1 6FD       0.500500
     21 H5          -0.8500    -2.8710    -0.0970 hn         1 6FD       0.466500
     22 H6           0.7950    -3.1240    -0.2970 hn         1 6FD       0.466500
     23 H7           2.7400    -2.3760     0.1460 ha         1 6FD       0.117000
     24 H8           3.0060     2.4990    -0.0430 h4         1 6FD       0.016100
     25 H9           4.8460    -1.1740     0.1200 h4         1 6FD       0.017100
@<TRIPOS>BOND
     1     1     2 ar  
     2     1    13 ar  
     3     1    17 1   
     4     2     3 ar  
     5     2     6 ar  
     6     3     4 ar  
     7     3    18 1   
     8     4     5 ar  
     9     5     7 1   
    10     5    10 ar  
    11     6     8 ar  
    12     6    10 ar  
    13     7    19 1   
    14     7    20 1   
    15     8     9 ar  
    16     8    11 1   
    17     9    12 ar  
    18     9    13 ar  
    19    11    21 1   
    20    11    22 1   
    21    12    16 ar  
    22    12    23 1   
    23    13    14 ar  
    24    14    15 ar  
    25    14    24 1   
    26    15    16 ar  
    27    16    25 1   
@<TRIPOS>SUBSTRUCTURE
     1 6FD         1 TEMP              0 ****  ****    0 ROOT
