@<TRIPOS>MOLECULE
6FD
   25    27     1     0     0
SMALL
No Charge or Current Charge


@<TRIPOS>ATOM
      1 C4           0.4580     1.6270    -0.0140 ca         1 6FD      -0.081000
      2 C5          -0.8060     1.0170    -0.0250 ca         1 6FD      -0.144000
      3 C6          -1.9790     1.7990    -0.0570 ca         1 6FD       0.167900
      4 N1          -3.2020     1.2370    -0.0700 nb         1 6FD      -0.213000
      5 C7          -3.2290    -0.1030    -0.0520 ca         1 6FD       0.380900
      6 C8          -0.9380    -0.3940    -0.0060 ca         1 6FD       0.008000
      7 N2          -4.4530    -0.6850    -0.0630 nv         1 6FD      -1.072900
      8 C9           0.2380    -1.1970     0.0250 ca         1 6FD       0.316000
      9 C10          1.5150    -0.5750     0.0380 ca         1 6FD      -0.058000
     10 N3          -2.1820    -0.9420    -0.0210 nb         1 6FD      -0.277000
     11 N4           0.1190    -2.5760     0.0370 nv         1 6FD      -1.055000
     12 C            2.7270    -1.3060     0.0740 ca         1 6FD      -0.135000
     13 C3           1.6170     0.8330     0.0170 ca         1 6FD      -0.078000
     14 C2           2.8930     1.4350     0.0290 ca         1 6FD       0.362900
     15 N            4.0470     0.7280     0.0620 nb         1 6FD      -0.659000
     16 C1           3.9530    -0.6200     0.0850 ca         1 6FD       0.307900
     17 H1           0.5410     2.7120    -0.0300 ha         1 6FD       0.122000
     18 H2          -1.9410     2.8870    -0.0720 h4         1 6FD       0.023100
     19 H3          -5.2660    -0.1090     0.1440 hn         1 6FD       0.500500
     20 H4          -4.5230    -1.6730     0.1740 hn         1 6FD       0.500500
     21 H5          -0.8030    -2.9770    -0.1220 hn         1 6FD       0.466500
     22 H6           0.9210    -3.1550    -0.1960 hn         1 6FD       0.466500
     23 H7           2.7420    -2.3910     0.0990 ha         1 6FD       0.117000
     24 H8           2.9970     2.5190     0.0130 h4         1 6FD       0.016100
     25 H9           4.8930    -1.1690     0.1140 h4         1 6FD       0.017100
@<TRIPOS>BOND
     1     1     2 ar  
     2     1    13 ar  
     3     1    17 1   
     4     2     3 ar  
     5     2     6 ar  
     6     3     4 ar  
     7     3    18 1   
     8     4     5 ar  
     9     5     7 1   
    10     5    10 ar  
    11     6     8 ar  
    12     6    10 ar  
    13     7    19 1   
    14     7    20 1   
    15     8     9 ar  
    16     8    11 1   
    17     9    12 ar  
    18     9    13 ar  
    19    11    21 1   
    20    11    22 1   
    21    12    16 ar  
    22    12    23 1   
    23    13    14 ar  
    24    14    15 ar  
    25    14    24 1   
    26    15    16 ar  
    27    16    25 1   
@<TRIPOS>SUBSTRUCTURE
     1 6FD         1 TEMP              0 ****  ****    0 ROOT
