@<TRIPOS>MOLECULE
6FE
   55    57     1     0     0
SMALL
bcc


@<TRIPOS>ATOM
      1 C1           2.1330     5.5000    -1.1030 c3         1 6FE       0.147100
      2 N1           2.7700     4.2930    -0.6140 n3         1 6FE      -0.697600
      3 C2           4.1790     4.5460    -0.3870 c3         1 6FE       0.147100
      4 C3           2.1190     3.7660     0.6030 c6         1 6FE       0.246900
      5 C4           2.7170     2.4430     0.9880 c2         1 6FE      -0.163700
      6 C5           2.0770     1.2780     0.8550 ce         1 6FE      -0.109500
      7 C6           0.6820     1.1820     0.4430 ce         1 6FE      -0.044000
      8 C7           0.0620    -0.0120     0.2150 cf         1 6FE       0.039600
      9 C8           0.8200    -1.2670     0.0590 ca         1 6FE      -0.094800
     10 C9           0.3880    -2.4450     0.6820 ca         1 6FE      -0.075000
     11 C10          1.0740    -3.6320     0.5350 ca         1 6FE      -0.197500
     12 C11          2.2170    -3.6900    -0.2690 ca         1 6FE       0.143100
     13 O1           2.8160    -4.8900    -0.3660 os         1 6FE      -0.318900
     14 C12          3.9800    -5.0050    -1.1610 c3         1 6FE       0.125700
     15 C28          2.6510    -2.5360    -0.9150 ca         1 6FE      -0.197500
     16 C29          1.9540    -1.3470    -0.7460 ca         1 6FE      -0.075000
     17 C30         -1.4020    -0.1360     0.1010 ca         1 6FE      -0.115800
     18 C31         -1.9870    -0.8520    -0.9460 ca         1 6FE      -0.067000
     19 C32         -3.3560    -0.9970    -1.0610 ca         1 6FE      -0.215500
     20 C33         -4.2310    -0.4360    -0.1090 ca         1 6FE       0.201600
     21 N6          -5.5880    -0.5570    -0.2260 nh         1 6FE      -0.686000
     22 C34         -6.1440    -1.4310    -1.2330 c3         1 6FE       0.215100
     23 C35         -6.4410    -0.1300     0.8580 c3         1 6FE       0.215100
     24 C36         -3.6400     0.2490     0.9710 ca         1 6FE      -0.215500
     25 C37         -2.2680     0.3930     1.0590 ca         1 6FE      -0.067000
     26 C38         -0.0050     2.4620     0.3360 ce         1 6FE      -0.109500
     27 C39          0.6360     3.6320     0.4160 c2         1 6FE      -0.163700
     28 H11C         2.6970     5.8800    -1.9550 h1         1 6FE       0.029700
     29 H12C         1.1210     5.3010    -1.4540 h1         1 6FE       0.029700
     30 H13C         2.0800     6.3050    -0.3520 h1         1 6FE       0.029700
     31 H21C         4.3640     5.2850     0.4100 h1         1 6FE       0.029700
     32 H22C         4.7080     3.6310    -0.1220 h1         1 6FE       0.029700
     33 H23C         4.6340     4.9260    -1.3020 h1         1 6FE       0.029700
     34 H3           2.2920     4.4820     1.4310 h1         1 6FE       0.031700
     35 H4           3.7190     2.4410     1.3990 ha         1 6FE       0.121000
     36 H39          0.0570     4.5430     0.3340 ha         1 6FE       0.121000
     37 H5           2.5840     0.3670     1.1470 ha         1 6FE       0.132500
     38 H38         -1.0720     2.4680     0.1590 ha         1 6FE       0.132500
     39 H9          -0.4980    -2.4250     1.3060 ha         1 6FE       0.140000
     40 H29          2.2970    -0.4680    -1.2770 ha         1 6FE       0.140000
     41 H10          0.7310    -4.5270     1.0400 ha         1 6FE       0.139500
     42 H28          3.5180    -2.5430    -1.5620 ha         1 6FE       0.139500
     43 H121         4.2960    -6.0430    -1.0970 h1         1 6FE       0.040033
     44 H122         3.7860    -4.7610    -2.2080 h1         1 6FE       0.040033
     45 H123         4.7890    -4.3680    -0.7940 h1         1 6FE       0.040033
     46 H31         -1.3570    -1.3050    -1.7020 ha         1 6FE       0.132000
     47 H37         -1.8600     0.9110     1.9190 ha         1 6FE       0.132000
     48 H32         -3.7390    -1.5520    -1.9050 ha         1 6FE       0.129500
     49 H36         -4.2470     0.6660     1.7620 ha         1 6FE       0.129500
     50 H341        -5.8640    -2.4810    -1.0880 h1         1 6FE       0.035367
     51 H342        -7.2280    -1.3680    -1.2020 h1         1 6FE       0.035367
     52 H343        -5.8320    -1.1380    -2.2370 h1         1 6FE       0.035367
     53 H351        -6.2790     0.9220     1.1030 h1         1 6FE       0.035367
     54 H352        -7.4800    -0.2330     0.5580 h1         1 6FE       0.035367
     55 H353        -6.2940    -0.7150     1.7730 h1         1 6FE       0.035367
@<TRIPOS>BOND
     1     1     2 1   
     2     1    28 1   
     3     1    29 1   
     4     1    30 1   
     5     2     3 1   
     6     2     4 1   
     7     3    31 1   
     8     3    32 1   
     9     3    33 1   
    10     4     5 1   
    11     4    27 1   
    12     4    34 1   
    13     5     6 2   
    14     5    35 1   
    15     6     7 1   
    16     6    37 1   
    17     7     8 2   
    18     7    26 1   
    19     8     9 1   
    20     8    17 1   
    21     9    10 ar  
    22     9    16 ar  
    23    10    11 ar  
    24    10    39 1   
    25    11    12 ar  
    26    11    41 1   
    27    12    13 1   
    28    12    15 ar  
    29    13    14 1   
    30    14    43 1   
    31    14    44 1   
    32    14    45 1   
    33    15    16 ar  
    34    15    42 1   
    35    16    40 1   
    36    17    18 ar  
    37    17    25 ar  
    38    18    19 ar  
    39    18    46 1   
    40    19    20 ar  
    41    19    48 1   
    42    20    21 1   
    43    20    24 ar  
    44    21    22 1   
    45    21    23 1   
    46    22    50 1   
    47    22    51 1   
    48    22    52 1   
    49    23    53 1   
    50    23    54 1   
    51    23    55 1   
    52    24    25 ar  
    53    24    49 1   
    54    25    47 1   
    55    26    27 2   
    56    26    38 1   
    57    27    36 1   
@<TRIPOS>SUBSTRUCTURE
     1 6FE         1 TEMP              0 ****  ****    0 ROOT
