@<TRIPOS>MOLECULE
6FE
   55    57     1     0     0
SMALL
No Charge or Current Charge


@<TRIPOS>ATOM
      1 C1           2.0310     5.8430    -0.8500 c3         1 6FE       0.147100
      2 N1           2.6860     4.5380    -0.5790 n3         1 6FE      -0.697600
      3 C2           4.1630     4.6670    -0.6370 c3         1 6FE       0.147100
      4 C3           2.1880     3.8580     0.6560 c6         1 6FE       0.246900
      5 C4           2.8580     2.5000     0.8650 c2         1 6FE      -0.213700
      6 C5           2.2070     1.3190     0.7690 ce         1 6FE      -0.159500
      7 C6           0.7590     1.2260     0.5110 ce         1 6FE      -0.044000
      8 C7           0.1300     0.0240     0.2810 cf         1 6FE       0.039600
      9 C8           0.8210    -1.2800     0.1280 ca         1 6FE      -0.094800
     10 C9           0.3850    -2.4100     0.8510 ca         1 6FE      -0.057000
     11 C10          1.0280    -3.6490     0.6900 ca         1 6FE      -0.179500
     12 C11          2.1070    -3.7820    -0.1970 ca         1 6FE       0.143100
     13 O1           2.6980    -5.0240    -0.3130 os         1 6FE      -0.342100
     14 C12          3.8090    -5.2640    -1.1950 c3         1 6FE       0.148900
     15 C28          2.5410    -2.6600    -0.9330 ca         1 6FE      -0.179500
     16 C29          1.8970    -1.4200    -0.7720 ca         1 6FE      -0.057000
     17 C30         -1.3340    -0.1510     0.1340 ca         1 6FE      -0.115800
     18 C31         -1.8650    -0.7760    -1.0100 ca         1 6FE      -0.049000
     19 C32         -3.2510    -0.9660    -1.1400 ca         1 6FE      -0.197500
     20 C33         -4.1360    -0.5430    -0.1280 ca         1 6FE       0.340000
     21 N6          -5.5350    -0.7350    -0.2610 nh         1 6FE      -0.824400
     22 C34         -6.0920    -1.8420    -1.0730 c3         1 6FE       0.215100
     23 C35         -6.5060     0.1640     0.4080 c3         1 6FE       0.215100
     24 C36         -3.5980     0.0700     1.0210 ca         1 6FE      -0.197500
     25 C37         -2.2120     0.2600     1.1540 ca         1 6FE      -0.049000
     26 C38          0.0350     2.5080     0.5560 ce         1 6FE      -0.159500
     27 C39          0.6670     3.7000     0.6460 c2         1 6FE      -0.213700
     28 H11C         2.4550     6.3110    -1.7480 h1         1 6FE       0.029700
     29 H12C         0.9550     5.7220    -1.0290 h1         1 6FE       0.029700
     30 H13C         2.1690     6.5330    -0.0070 h1         1 6FE       0.029700
     31 H21C         4.5430     5.2260     0.2280 h1         1 6FE       0.029700
     32 H22C         4.6510     3.6840    -0.6590 h1         1 6FE       0.029700
     33 H23C         4.4710     5.1970    -1.5480 h1         1 6FE       0.029700
     34 H3           2.4430     4.4820     1.5270 h1         1 6FE       0.031700
     35 H4           3.9180     2.5200     1.1140 ha         1 6FE       0.171000
     36 H39          0.0880     4.6210     0.7080 ha         1 6FE       0.171000
     37 H5           2.7540     0.3920     0.9410 ha         1 6FE       0.182500
     38 H38         -1.0530     2.4880     0.5110 ha         1 6FE       0.182500
     39 H9          -0.4490    -2.3260     1.5440 ha         1 6FE       0.122000
     40 H29          2.2300    -0.5650    -1.3570 ha         1 6FE       0.122000
     41 H10          0.6870    -4.5120     1.2560 ha         1 6FE       0.121500
     42 H28          3.3670    -2.7290    -1.6340 ha         1 6FE       0.121500
     43 H121         4.1240    -6.3130    -1.1310 h1         1 6FE       0.040033
     44 H122         3.5330    -5.0540    -2.2360 h1         1 6FE       0.040033
     45 H123         4.6660    -4.6350    -0.9230 h1         1 6FE       0.040033
     46 H31         -1.2010    -1.1100    -1.8060 ha         1 6FE       0.114000
     47 H37         -1.8180     0.7180     2.0590 ha         1 6FE       0.114000
     48 H32         -3.6320    -1.4360    -2.0410 ha         1 6FE       0.111500
     49 H36         -4.2500     0.3900     1.8280 ha         1 6FE       0.111500
     50 H341        -5.4640    -2.7390    -0.9840 h1         1 6FE       0.035367
     51 H342        -7.1010    -2.1090    -0.7320 h1         1 6FE       0.035367
     52 H343        -6.1480    -1.5530    -2.1310 h1         1 6FE       0.035367
     53 H351        -6.1330     1.1970     0.4170 h1         1 6FE       0.035367
     54 H352        -7.4680     0.1640    -0.1230 h1         1 6FE       0.035367
     55 H353        -6.6800    -0.1590     1.4430 h1         1 6FE       0.035367
@<TRIPOS>BOND
     1     1     2 1   
     2     1    28 1   
     3     1    29 1   
     4     1    30 1   
     5     2     3 1   
     6     2     4 1   
     7     3    31 1   
     8     3    32 1   
     9     3    33 1   
    10     4     5 1   
    11     4    27 1   
    12     4    34 1   
    13     5     6 2   
    14     5    35 1   
    15     6     7 1   
    16     6    37 1   
    17     7     8 2   
    18     7    26 1   
    19     8     9 1   
    20     8    17 1   
    21     9    10 ar  
    22     9    16 ar  
    23    10    11 ar  
    24    10    39 1   
    25    11    12 ar  
    26    11    41 1   
    27    12    13 1   
    28    12    15 ar  
    29    13    14 1   
    30    14    43 1   
    31    14    44 1   
    32    14    45 1   
    33    15    16 ar  
    34    15    42 1   
    35    16    40 1   
    36    17    18 ar  
    37    17    25 ar  
    38    18    19 ar  
    39    18    46 1   
    40    19    20 ar  
    41    19    48 1   
    42    20    21 1   
    43    20    24 ar  
    44    21    22 1   
    45    21    23 1   
    46    22    50 1   
    47    22    51 1   
    48    22    52 1   
    49    23    53 1   
    50    23    54 1   
    51    23    55 1   
    52    24    25 ar  
    53    24    49 1   
    54    25    47 1   
    55    26    27 2   
    56    26    38 1   
    57    27    36 1   
@<TRIPOS>SUBSTRUCTURE
     1 6FE         1 TEMP              0 ****  ****    0 ROOT
