@<TRIPOS>MOLECULE
6FF
   48    50     1     0     0
SMALL
abcg2


@<TRIPOS>ATOM
      1 C1          -1.2620     2.9400     0.1510 ca         1 6FF       0.306100
      2 C2          -0.1310     3.5380     0.6810 ca         1 6FF      -0.239000
      3 C3           1.0910     2.8780     0.7100 ca         1 6FF       0.283100
      4 C9           2.4820     0.8790     0.2460 cc         1 6FF       0.474500
      5 C12          4.1060    -0.6660     0.2410 c          1 6FF       0.574000
      6 C14          1.8200    -1.5470     0.2140 ca         1 6FF      -0.006400
      7 C15          1.6150    -2.3250    -0.9140 ca         1 6FF       0.205000
      8 C16          0.7370    -3.3900    -0.9050 ca         1 6FF      -0.138000
      9 C19          1.1470    -1.8580     1.3880 ca         1 6FF      -0.079000
     10 C27         -3.5640    -3.1330     1.6670 c3         1 6FF      -0.087100
     11 C4           1.1920     1.5520     0.2220 ca         1 6FF      -0.289900
     12 C5           0.0520     0.9600    -0.3050 ca         1 6FF       0.094000
     13 C6          -1.1620     1.6230    -0.3360 ca         1 6FF      -0.429500
     14 O7          -2.3840     3.6580     0.1220 oh         1 6FF      -0.529100
     15 O8           2.1270     3.5520     1.1930 oh         1 6FF      -0.528100
     16 N10          3.5970     1.5270     0.3590 nd         1 6FF      -0.558300
     17 N11          4.5760     0.5970     0.3620 ns         1 6FF      -0.358400
     18 N13          2.7270    -0.4690     0.1680 n          1 6FF      -0.241500
     19 C17          0.0590    -3.6840     0.2690 ca         1 6FF      -0.068000
     20 C18          0.2640    -2.9250     1.4150 ca         1 6FF      -0.130000
     21 O20          4.6950    -1.7260     0.2120 o          1 6FF      -0.531000
     22 S21         -2.5740     0.8200    -1.0120 sy         1 6FF       1.185600
     23 O22         -3.3290     1.8380    -1.7510 o          1 6FF      -0.551500
     24 O23         -2.1150    -0.3620    -1.7220 o          1 6FF      -0.551500
     25 N24         -3.4900     0.4420     0.2940 n3         1 6FF      -0.779500
     26 C25         -3.1060    -0.7220     1.0920 c3         1 6FF       0.214800
     27 C26         -3.6960    -2.0440     0.6120 c3         1 6FF      -0.110400
     28 C28         -4.9070     0.7950     0.2920 c3         1 6FF       0.209100
     29 F29          2.2750    -2.0160    -2.0320 f          1 6FF      -0.155000
     30 H1          -0.1900     4.5580     1.0400 ha         1 6FF       0.153000
     31 H2           0.5880    -3.9780    -1.8020 ha         1 6FF       0.143000
     32 H3           1.3180    -1.2580     2.2720 ha         1 6FF       0.129000
     33 H4          -3.9890    -4.0730     1.3140 hc         1 6FF       0.035033
     34 H5          -2.5220    -3.3220     1.9250 hc         1 6FF       0.035033
     35 H6          -4.0850    -2.8560     2.5850 hc         1 6FF       0.035033
     36 H7           0.0990    -0.0350    -0.7210 ha         1 6FF       0.143000
     37 H8          -3.0070     3.3000    -0.5330 ho         1 6FF       0.509000
     38 H9           2.9580     3.0500     1.0560 ho         1 6FF       0.518000
     39 H10          5.5430     0.8720     0.4290 hn         1 6FF       0.497000
     40 H11         -0.6330    -4.5140     0.2860 ha         1 6FF       0.123000
     41 H12         -0.2550    -3.1670     2.3310 ha         1 6FF       0.123000
     42 H13         -2.0160    -0.7840     1.1450 h1         1 6FF       0.055700
     43 H14         -3.4420    -0.5120     2.1110 h1         1 6FF       0.055700
     44 H15         -3.2080    -2.3510    -0.3140 hc         1 6FF       0.056700
     45 H16         -4.7550    -1.9050     0.3770 hc         1 6FF       0.056700
     46 H17         -5.4980     0.2300    -0.4300 h1         1 6FF       0.049700
     47 H18         -5.2850     0.5750     1.2880 h1         1 6FF       0.049700
     48 H19         -5.0490     1.8570     0.1140 h1         1 6FF       0.049700
@<TRIPOS>BOND
     1     1     2 ar  
     2     1    13 ar  
     3     1    14 1   
     4     2     3 ar  
     5     2    30 1   
     6     3    11 ar  
     7     3    15 1   
     8     4    11 1   
     9     4    16 2   
    10     4    18 1   
    11     5    17 1   
    12     5    18 1   
    13     5    21 2   
    14     6     7 ar  
    15     6     9 ar  
    16     6    18 1   
    17     7     8 ar  
    18     7    29 1   
    19     8    19 ar  
    20     8    31 1   
    21     9    20 ar  
    22     9    32 1   
    23    10    27 1   
    24    10    33 1   
    25    10    34 1   
    26    10    35 1   
    27    11    12 ar  
    28    12    13 ar  
    29    12    36 1   
    30    13    22 1   
    31    14    37 1   
    32    15    38 1   
    33    16    17 1   
    34    17    39 1   
    35    19    20 ar  
    36    19    40 1   
    37    20    41 1   
    38    22    23 2   
    39    22    24 2   
    40    22    25 1   
    41    25    26 1   
    42    25    28 1   
    43    26    27 1   
    44    26    42 1   
    45    26    43 1   
    46    27    44 1   
    47    27    45 1   
    48    28    46 1   
    49    28    47 1   
    50    28    48 1   
@<TRIPOS>SUBSTRUCTURE
     1 6FF         1 TEMP              0 ****  ****    0 ROOT
