@<TRIPOS>MOLECULE
6FF
   48    50     1     0     0
SMALL
No Charge or Current Charge


@<TRIPOS>ATOM
      1 C1          -1.3420     2.5090     0.7220 ca         1 6FF       0.306100
      2 C2          -0.2510     3.0250     1.4200 ca         1 6FF      -0.239000
      3 C3           1.0230     2.4830     1.2410 ca         1 6FF       0.283100
      4 C9           2.5650     0.8300     0.1660 cc         1 6FF       0.474500
      5 C12          4.2190    -0.5810    -0.4340 c          1 6FF       0.574000
      6 C14          1.9700    -1.6260    -0.0580 ca         1 6FF      -0.006400
      7 C15          1.8550    -2.6050    -1.0750 ca         1 6FF       0.205000
      8 C16          0.9380    -3.6620    -0.9540 ca         1 6FF      -0.138000
      9 C19          1.0900    -1.6970     1.0450 ca         1 6FF      -0.079000
     10 C27         -3.4560    -2.3940     2.3290 c3         1 6FF      -0.087100
     11 C4           1.2230     1.3810     0.3860 ca         1 6FF      -0.289900
     12 C5           0.1240     0.8970    -0.3550 ca         1 6FF       0.094000
     13 C6          -1.1540     1.4520    -0.1760 ca         1 6FF      -0.429500
     14 O7          -2.5740     3.0350     0.9470 oh         1 6FF      -0.529100
     15 O8           2.0660     3.0350     1.9150 oh         1 6FF      -0.528100
     16 N10          3.6740     1.5690     0.2140 nd         1 6FF      -0.558300
     17 N11          4.6440     0.6830    -0.1660 ns         1 6FF      -0.358400
     18 N13          2.8450    -0.4880    -0.2210 n          1 6FF      -0.241500
     19 C17          0.1050    -3.7470     0.1740 ca         1 6FF      -0.068000
     20 C18          0.1810    -2.7610     1.1690 ca         1 6FF      -0.130000
     21 O20          4.9010    -1.5550    -0.7120 o          1 6FF      -0.531000
     22 S21         -2.5030     0.8470    -1.1700 sy         1 6FF       1.185600
     23 O22         -2.8840     1.9520    -2.0520 o          1 6FF      -0.551500
     24 O23         -2.2120    -0.4920    -1.6870 o          1 6FF      -0.551500
     25 N24         -3.7550     0.7400    -0.0180 n3         1 6FF      -0.779500
     26 C25         -3.4920    -0.0880     1.1920 c3         1 6FF       0.214800
     27 C26         -3.4890    -1.6230     0.9940 c3         1 6FF      -0.110400
     28 C28         -5.0910     0.5240    -0.6170 c3         1 6FF       0.209100
     29 F29          2.5930    -2.5160    -2.2050 f          1 6FF      -0.155000
     30 H1          -0.3930     3.8560     2.1040 ha         1 6FF       0.153000
     31 H2           0.8660    -4.4060    -1.7420 ha         1 6FF       0.143000
     32 H3           1.1290    -0.9440     1.8290 ha         1 6FF       0.129000
     33 H4          -3.3920    -3.4730     2.1470 hc         1 6FF       0.035033
     34 H5          -2.5910    -2.0940     2.9320 hc         1 6FF       0.035033
     35 H6          -4.3650    -2.1980     2.9110 hc         1 6FF       0.035033
     36 H7           0.2670     0.1030    -1.0870 ha         1 6FF       0.143000
     37 H8          -3.2240     2.3640     0.6180 ho         1 6FF       0.509000
     38 H9           2.8820     2.6710     1.4930 ho         1 6FF       0.518000
     39 H10          5.6420     0.9070    -0.2320 hn         1 6FF       0.497000
     40 H11         -0.6050    -4.5660     0.2690 ha         1 6FF       0.123000
     41 H12         -0.4670    -2.8210     2.0400 ha         1 6FF       0.123000
     42 H13         -2.5400     0.1950     1.6600 h1         1 6FF       0.055700
     43 H14         -4.2680     0.1410     1.9360 h1         1 6FF       0.055700
     44 H15         -2.6160    -1.9190     0.4020 hc         1 6FF       0.056700
     45 H16         -4.3790    -1.9350     0.4370 hc         1 6FF       0.056700
     46 H17         -5.1360    -0.4320    -1.1550 h1         1 6FF       0.049700
     47 H18         -5.8680     0.5180     0.1580 h1         1 6FF       0.049700
     48 H19         -5.3390     1.3240    -1.3270 h1         1 6FF       0.049700
@<TRIPOS>BOND
     1     1     2 ar  
     2     1    13 ar  
     3     1    14 1   
     4     2     3 ar  
     5     2    30 1   
     6     3    11 ar  
     7     3    15 1   
     8     4    11 1   
     9     4    16 2   
    10     4    18 1   
    11     5    17 1   
    12     5    18 1   
    13     5    21 2   
    14     6     7 ar  
    15     6     9 ar  
    16     6    18 1   
    17     7     8 ar  
    18     7    29 1   
    19     8    19 ar  
    20     8    31 1   
    21     9    20 ar  
    22     9    32 1   
    23    10    27 1   
    24    10    33 1   
    25    10    34 1   
    26    10    35 1   
    27    11    12 ar  
    28    12    13 ar  
    29    12    36 1   
    30    13    22 1   
    31    14    37 1   
    32    15    38 1   
    33    16    17 1   
    34    17    39 1   
    35    19    20 ar  
    36    19    40 1   
    37    20    41 1   
    38    22    23 2   
    39    22    24 2   
    40    22    25 1   
    41    25    26 1   
    42    25    28 1   
    43    26    27 1   
    44    26    42 1   
    45    26    43 1   
    46    27    44 1   
    47    27    45 1   
    48    28    46 1   
    49    28    47 1   
    50    28    48 1   
@<TRIPOS>SUBSTRUCTURE
     1 6FF         1 TEMP              0 ****  ****    0 ROOT
