@<TRIPOS>MOLECULE
6FG
   29    30     1     0     0
SMALL
bcc


@<TRIPOS>ATOM
      1 O1           1.2530    -2.0840     0.4480 o          1 6FG      -0.612100
      2 C6           1.1920    -0.8790     0.2240 c          1 6FG       0.670100
      3 N            2.2970    -0.1340     0.0670 n          1 6FG      -0.488800
      4 C10          3.6310    -0.7260     0.1100 c5         1 6FG       0.102500
      5 C9           4.5310     0.3970    -0.3910 c5         1 6FG      -0.094900
      6 C8           3.7970     1.6590     0.0530 c5         1 6FG      -0.094900
      7 C7           2.3330     1.3040    -0.1790 c5         1 6FG       0.102500
      8 C5          -0.1310    -0.1490     0.1090 c3         1 6FG      -0.152400
      9 C4          -1.3340    -1.0870     0.1390 c3         1 6FG       0.010900
     10 C3          -2.6150    -0.3330     0.0000 cc         1 6FG      -0.226600
     11 C           -3.0710     0.4020    -1.1450 cc         1 6FG      -0.272300
     12 C2          -3.5840    -0.1750     0.9330 cd         1 6FG       0.232600
     13 O           -4.5910     0.5900     0.4570 os         1 6FG      -0.327800
     14 C1          -4.2670     0.9340    -0.8050 cd         1 6FG       0.228600
     15 H1           3.8880    -1.0180     1.1330 h1         1 6FG       0.050200
     16 H2           5.5420     0.3230     0.0080 hc         1 6FG       0.053950
     17 H3           3.9730     1.8440     1.1150 hc         1 6FG       0.053950
     18 H4           2.0310     1.5320    -1.2060 h1         1 6FG       0.050200
     19 H5          -0.2110     0.5760     0.9250 hc         1 6FG       0.058700
     20 H6          -0.1410     0.4450    -0.8100 hc         1 6FG       0.058700
     21 H7          -1.2480    -1.8170    -0.6690 hc         1 6FG       0.063200
     22 H8          -1.3430    -1.6540     1.0710 hc         1 6FG       0.063200
     23 H9          -2.5680     0.5090    -2.0930 ha         1 6FG       0.158000
     24 H10         -3.6870    -0.5380     1.9440 h4         1 6FG       0.052100
     25 H11         -4.9730     1.5510    -1.3380 h4         1 6FG       0.051100
     26 H12          3.6830    -1.6190    -0.5130 h1         1 6FG       0.050200
     27 H13          4.6010     0.3660    -1.4800 hc         1 6FG       0.053950
     28 H14          4.0970     2.5510    -0.4950 hc         1 6FG       0.053950
     29 H15          1.6650     1.8440     0.4930 h1         1 6FG       0.050200
@<TRIPOS>BOND
     1     1     2 2   
     2     2     3 1   
     3     2     8 1   
     4     3     4 1   
     5     3     7 1   
     6     4     5 1   
     7     4    15 1   
     8     4    26 1   
     9     5     6 1   
    10     5    16 1   
    11     5    27 1   
    12     6     7 1   
    13     6    17 1   
    14     6    28 1   
    15     7    18 1   
    16     7    29 1   
    17     8     9 1   
    18     8    19 1   
    19     8    20 1   
    20     9    10 1   
    21     9    21 1   
    22     9    22 1   
    23    10    11 1   
    24    10    12 2   
    25    11    14 2   
    26    11    23 1   
    27    12    13 1   
    28    12    24 1   
    29    13    14 1   
    30    14    25 1   
@<TRIPOS>SUBSTRUCTURE
     1 6FG         1 TEMP              0 ****  ****    0 ROOT
