@<TRIPOS>MOLECULE
6FG
   29    30     1     0     0
SMALL
No Charge or Current Charge


@<TRIPOS>ATOM
      1 O1           1.2610    -2.1170     0.3720 o          1 6FG      -0.612100
      2 C6           1.1900    -0.9080     0.1840 c          1 6FG       0.603100
      3 N            2.3640    -0.1380     0.0560 n          1 6FG      -0.421800
      4 C10          3.7160    -0.7320     0.1150 c5         1 6FG       0.102500
      5 C9           4.5880     0.4220    -0.4430 c5         1 6FG      -0.094900
      6 C8           3.8690     1.6650     0.1340 c5         1 6FG      -0.094900
      7 C7           2.3810     1.3280    -0.1430 c5         1 6FG       0.102500
      8 C5          -0.1670    -0.1880     0.0810 c3         1 6FG      -0.152400
      9 C4          -1.4120    -1.1020     0.1250 c3         1 6FG       0.010900
     10 C3          -2.6970    -0.3250     0.0210 cc         1 6FG      -0.161300
     11 C           -3.1650     0.3110    -1.1470 cc         1 6FG      -0.189000
     12 C2          -3.6500    -0.0780     0.9760 cd         1 6FG       0.122900
     13 O           -4.6900     0.6780     0.4830 os         1 6FG      -0.239000
     14 C1          -4.3570     0.9000    -0.8320 cd         1 6FG       0.118900
     15 H1           3.9850    -0.9760     1.1520 h1         1 6FG       0.050200
     16 H2           5.6350     0.3470    -0.1270 hc         1 6FG       0.053950
     17 H3           4.0570     1.7650     1.2100 hc         1 6FG       0.053950
     18 H4           2.0970     1.5820    -1.1730 h1         1 6FG       0.050200
     19 H5          -0.2040     0.5720     0.8690 hc         1 6FG       0.058700
     20 H6          -0.1560     0.4360    -0.8200 hc         1 6FG       0.058700
     21 H7          -1.3570    -1.8300    -0.6930 hc         1 6FG       0.063200
     22 H8          -1.4050    -1.6790     1.0590 hc         1 6FG       0.063200
     23 H9          -2.6650     0.3260    -2.1100 ha         1 6FG       0.140000
     24 H10         -3.7010    -0.3770     2.0150 h4         1 6FG       0.052100
     25 H11         -5.0410     1.4850    -1.4340 h4         1 6FG       0.051100
     26 H12          3.8030    -1.6420    -0.4930 h1         1 6FG       0.050200
     27 H13          4.5750     0.4310    -1.5400 hc         1 6FG       0.053950
     28 H14          4.1830     2.6000    -0.3420 hc         1 6FG       0.053950
     29 H15          1.7130     1.8600     0.5480 h1         1 6FG       0.050200
@<TRIPOS>BOND
     1     1     2 2   
     2     2     3 1   
     3     2     8 1   
     4     3     4 1   
     5     3     7 1   
     6     4     5 1   
     7     4    15 1   
     8     4    26 1   
     9     5     6 1   
    10     5    16 1   
    11     5    27 1   
    12     6     7 1   
    13     6    17 1   
    14     6    28 1   
    15     7    18 1   
    16     7    29 1   
    17     8     9 1   
    18     8    19 1   
    19     8    20 1   
    20     9    10 1   
    21     9    21 1   
    22     9    22 1   
    23    10    11 1   
    24    10    12 2   
    25    11    14 2   
    26    11    23 1   
    27    12    13 1   
    28    12    24 1   
    29    13    14 1   
    30    14    25 1   
@<TRIPOS>SUBSTRUCTURE
     1 6FG         1 TEMP              0 ****  ****    0 ROOT
