@<TRIPOS>MOLECULE
6FH
   28    27     1     0     0
SMALL
abcg2


@<TRIPOS>ATOM
      1 CAA          5.2000    -0.3440    -0.4300 c3         1 6FH      -0.085100
      2 CAB          3.8220    -0.8100     0.0200 c3         1 6FH      -0.074400
      3 CAC          2.7030     0.2200    -0.1670 c3         1 6FH      -0.059700
      4 CAD          2.9330     1.4620     0.6880 c3         1 6FH      -0.082100
      5 CAE          1.3480    -0.4300     0.1210 c3         1 6FH      -0.073400
      6 CAF          0.1300     0.4460    -0.1500 c3         1 6FH      -0.079400
      7 CAG         -1.1850    -0.3110     0.0130 c3         1 6FH      -0.055400
      8 CAH         -2.4040     0.5630    -0.2320 c3         1 6FH      -0.204400
      9 CAI         -3.7730    -0.1250    -0.0890 c          1 6FH       0.717000
     10 OAJ         -3.7950    -1.3080     0.3020 o          1 6FH      -0.744000
     11 H1           5.1920    -0.0450    -1.4800 hc         1 6FH       0.024367
     12 H2           5.5570     0.5060     0.1530 hc         1 6FH       0.024367
     13 H3           5.9370    -1.1410    -0.3210 hc         1 6FH       0.024367
     14 H4           3.5560    -1.7160    -0.5340 hc         1 6FH       0.035200
     15 H5           3.8610    -1.1040     1.0750 hc         1 6FH       0.035200
     16 H6           2.7080     0.5280    -1.2210 hc         1 6FH       0.039700
     17 H7           2.9150     1.2090     1.7520 hc         1 6FH       0.027033
     18 H8           3.8960     1.9270     0.4760 hc         1 6FH       0.027033
     19 H9           2.1680     2.2200     0.5170 hc         1 6FH       0.027033
     20 H10          1.2660    -1.3370    -0.4880 hc         1 6FH       0.033700
     21 H11          1.3280    -0.7660     1.1650 hc         1 6FH       0.033700
     22 H12          0.1280     1.3100     0.5220 hc         1 6FH       0.024700
     23 H13          0.1930     0.8540    -1.1650 hc         1 6FH       0.024700
     24 H14         -1.1960    -1.1630    -0.6750 hc         1 6FH       0.037700
     25 H15         -1.2310    -0.7390     1.0190 hc         1 6FH       0.037700
     26 H16         -2.3860     1.4170     0.4560 hc         1 6FH       0.014200
     27 H17         -2.3450     1.0080    -1.2320 hc         1 6FH       0.014200
     28 O1          -4.7680     0.5760    -0.3740 o          1 6FH      -0.744000
@<TRIPOS>BOND
     1     1     2 1   
     2     1    11 1   
     3     1    12 1   
     4     1    13 1   
     5     2     3 1   
     6     2    14 1   
     7     2    15 1   
     8     3     4 1   
     9     3     5 1   
    10     3    16 1   
    11     4    17 1   
    12     4    18 1   
    13     4    19 1   
    14     5     6 1   
    15     5    20 1   
    16     5    21 1   
    17     6     7 1   
    18     6    22 1   
    19     6    23 1   
    20     7     8 1   
    21     7    24 1   
    22     7    25 1   
    23     8     9 1   
    24     8    26 1   
    25     8    27 1   
    26     9    10 1   
    27     9    28 1   
@<TRIPOS>SUBSTRUCTURE
     1 6FH         1 TEMP              0 ****  ****    0 ROOT
