@<TRIPOS>MOLECULE
6FH
   28    27     1     0     0
SMALL
No Charge or Current Charge


@<TRIPOS>ATOM
      1 CAA          5.2400    -0.3100    -0.5270 c3         1 6FH      -0.085100
      2 CAB          3.8430    -0.8270    -0.1200 c3         1 6FH      -0.074400
      3 CAC          2.7120     0.2410    -0.1430 c3         1 6FH      -0.059700
      4 CAD          2.9760     1.3940     0.8610 c3         1 6FH      -0.082100
      5 CAE          1.3290    -0.4350     0.0850 c3         1 6FH      -0.073400
      6 CAF          0.1030     0.4910    -0.1140 c3         1 6FH      -0.079400
      7 CAG         -1.2430    -0.2610    -0.0040 c3         1 6FH      -0.055400
      8 CAH         -2.4730     0.6590    -0.1970 c3         1 6FH      -0.204400
      9 CAI         -3.7730    -0.1580    -0.0770 c          1 6FH       0.717000
     10 OAJ         -4.2700    -0.2920     1.0310 o          1 6FH      -0.744000
     11 H1           5.2000     0.1930    -1.5010 hc         1 6FH       0.024367
     12 H2           5.6370     0.3920     0.2140 hc         1 6FH       0.024367
     13 H3           5.9440    -1.1470    -0.6050 hc         1 6FH       0.024367
     14 H4           3.5760    -1.6410    -0.8070 hc         1 6FH       0.035200
     15 H5           3.9050    -1.2730     0.8800 hc         1 6FH       0.035200
     16 H6           2.6980     0.6780    -1.1500 hc         1 6FH       0.039700
     17 H7           2.9900     1.0180     1.8910 hc         1 6FH       0.027033
     18 H8           3.9360     1.8830     0.6610 hc         1 6FH       0.027033
     19 H9           2.2070     2.1700     0.7880 hc         1 6FH       0.027033
     20 H10          1.2320    -1.2780    -0.6110 hc         1 6FH       0.033700
     21 H11          1.2960    -0.8610     1.0950 hc         1 6FH       0.033700
     22 H12          0.1170     1.2900     0.6370 hc         1 6FH       0.024700
     23 H13          0.1690     0.9700    -1.0980 hc         1 6FH       0.024700
     24 H14         -1.2710    -1.0610    -0.7550 hc         1 6FH       0.037700
     25 H15         -1.3050    -0.7450     0.9790 hc         1 6FH       0.037700
     26 H16         -2.4150     1.4090     0.6020 hc         1 6FH       0.014200
     27 H17         -2.3770     1.0810    -1.2060 hc         1 6FH       0.014200
     28 O1          -4.2250    -0.6760    -1.0870 o          1 6FH      -0.744000
@<TRIPOS>BOND
     1     1     2 1   
     2     1    11 1   
     3     1    12 1   
     4     1    13 1   
     5     2     3 1   
     6     2    14 1   
     7     2    15 1   
     8     3     4 1   
     9     3     5 1   
    10     3    16 1   
    11     4    17 1   
    12     4    18 1   
    13     4    19 1   
    14     5     6 1   
    15     5    20 1   
    16     5    21 1   
    17     6     7 1   
    18     6    22 1   
    19     6    23 1   
    20     7     8 1   
    21     7    24 1   
    22     7    25 1   
    23     8     9 1   
    24     8    26 1   
    25     8    27 1   
    26     9    10 1   
    27     9    28 1   
@<TRIPOS>SUBSTRUCTURE
     1 6FH         1 TEMP              0 ****  ****    0 ROOT
