@<TRIPOS>MOLECULE
6FI
   49    50     1     0     0
SMALL
No Charge or Current Charge


@<TRIPOS>ATOM
      1 C13        -12.7810     4.6150   -12.5400 ca         1 6FI      -0.190500
      2 C15        -11.4970     4.7530   -14.5930 ca         1 6FI      -0.190500
      3 C20        -13.9660     4.2850   -16.0570 c3         1 6FI       0.171600
      4 C21        -15.4280     4.0220   -16.4710 c3         1 6FI      -0.074400
      5 C22        -15.9650     2.6350   -16.0420 c3         1 6FI       0.168800
      6 C24        -15.2670     1.3690   -18.0710 c3         1 6FI       0.151600
      7 C01         -8.1360     5.9270    -9.6260 ca         1 6FI       0.042900
      8 C03         -6.7090     5.2570   -11.2940 ca         1 6FI       0.380900
      9 C04         -7.8050     5.0040   -12.1300 ca         1 6FI      -0.263000
     10 C05         -9.1040     5.2500   -11.6250 cp         1 6FI       0.226500
     11 C08         -8.5180     5.0120    -6.9640 c3         1 6FI      -0.325100
     12 C11        -10.3550     5.0140   -12.4260 cp         1 6FI      -0.211500
     13 C12        -11.6140     4.8340   -11.7910 ca         1 6FI      -0.031500
     14 C14        -12.7320     4.5710   -13.9390 ca         1 6FI       0.180100
     15 C16        -10.3270     4.9720   -13.8460 ca         1 6FI      -0.031500
     16 C18         -4.9330     4.5520   -13.0090 c3         1 6FI       0.217100
     17 C25        -15.6340     0.1990   -15.9460 c3         1 6FI       0.151600
     18 N02         -6.8660     5.7180   -10.0440 nb         1 6FI      -0.197000
     19 N06         -9.2510     5.7040   -10.3620 nb         1 6FI      -0.198000
     20 N23        -15.2260     1.4670   -16.5920 n3         1 6FI      -0.719600
     21 O09         -9.6670     7.2050    -7.8150 o          1 6FI      -0.501500
     22 O10         -7.1330     7.1800    -7.4610 o          1 6FI      -0.501500
     23 O19        -13.9120     4.3530   -14.6200 os         1 6FI      -0.343100
     24 S07         -8.3680     6.5250    -7.9210 sy         1 6FI       0.988100
     25 H1         -13.7310     4.4760   -12.0320 ha         1 6FI       0.123500
     26 H2         -11.4240     4.7310   -15.6760 ha         1 6FI       0.123500
     27 H3         -13.3220     3.4820   -16.4380 h1         1 6FI       0.041700
     28 H4         -13.6350     5.2350   -16.4960 h1         1 6FI       0.041700
     29 H5         -15.5200     4.1380   -17.5560 hc         1 6FI       0.051200
     30 H6         -16.0650     4.7980   -16.0290 hc         1 6FI       0.051200
     31 H7         -15.9420     2.5970   -14.9450 h1         1 6FI       0.037700
     32 H8         -17.0230     2.5720   -16.3350 h1         1 6FI       0.037700
     33 H9         -14.7110     0.4870   -18.4150 h1         1 6FI       0.030033
     34 H10        -16.3010     1.2830   -18.4300 h1         1 6FI       0.030033
     35 H11        -14.8090     2.2490   -18.5410 h1         1 6FI       0.030033
     36 H12         -7.6570     4.6160   -13.1300 ha         1 6FI       0.131000
     37 H13         -8.6620     5.2840    -5.9130 h1         1 6FI       0.106700
     38 H14         -9.3810     4.4520    -7.3400 h1         1 6FI       0.106700
     39 H15         -7.5970     4.4330    -7.0910 h1         1 6FI       0.106700
     40 H16        -11.6910     4.8550   -10.7050 ha         1 6FI       0.120500
     41 H17         -9.3950     5.1250   -14.3840 ha         1 6FI       0.120500
     42 H18         -3.8360     4.4890   -13.0290 h1         1 6FI       0.043033
     43 H19         -5.3400     3.5520   -13.2120 h1         1 6FI       0.043033
     44 H20         -5.2550     5.2290   -13.8120 h1         1 6FI       0.043033
     45 H21        -15.5130     0.2620   -14.8560 h1         1 6FI       0.030033
     46 H22        -16.6870    -0.0300   -16.1630 h1         1 6FI       0.030033
     47 H23        -15.0190    -0.6360   -16.3050 h1         1 6FI       0.030033
     48 H24         -4.6850     5.2660   -11.0000 hn         1 6FI       0.516000
     49 N17         -5.3990     5.0440   -11.6990 nu         1 6FI      -0.925100
@<TRIPOS>BOND
     1     1    13 ar  
     2     1    14 ar  
     3     1    25 1   
     4     2    14 ar  
     5     2    15 ar  
     6     2    26 1   
     7     3     4 1   
     8     3    23 1   
     9     3    27 1   
    10     3    28 1   
    11     4     5 1   
    12     4    29 1   
    13     4    30 1   
    14     5    20 1   
    15     5    31 1   
    16     5    32 1   
    17     6    20 1   
    18     6    33 1   
    19     6    34 1   
    20     6    35 1   
    21     7    18 ar  
    22     7    19 ar  
    23     7    24 1   
    24     8     9 ar  
    25     8    18 ar  
    26     8    49 1   
    27     9    10 ar  
    28     9    36 1   
    29    10    12 1   
    30    10    19 ar  
    31    11    24 1   
    32    11    37 1   
    33    11    38 1   
    34    11    39 1   
    35    12    13 ar  
    36    12    15 ar  
    37    13    40 1   
    38    14    23 1   
    39    15    41 1   
    40    16    42 1   
    41    16    43 1   
    42    16    44 1   
    43    16    49 1   
    44    17    20 1   
    45    17    45 1   
    46    17    46 1   
    47    17    47 1   
    48    21    24 2   
    49    22    24 2   
    50    48    49 1   
@<TRIPOS>SUBSTRUCTURE
     1 6FI         1 TEMP              0 ****  ****    0 ROOT
