@<TRIPOS>MOLECULE
6FI
   49    50     1     0     0
SMALL
bcc


@<TRIPOS>ATOM
      1 C13        -12.6880     4.7620   -12.6540 ca         1 6FI      -0.208500
      2 C15        -11.4270     4.8500   -14.7020 ca         1 6FI      -0.208500
      3 C20        -13.8580     4.3800   -16.0820 c3         1 6FI       0.148400
      4 C21        -15.2780     4.0420   -16.4830 c3         1 6FI      -0.074400
      5 C22        -15.8100     2.7530   -15.8650 c3         1 6FI       0.168800
      6 C24        -14.9440     1.1970   -17.4880 c3         1 6FI       0.151600
      7 C01         -8.1270     5.4940    -9.7490 ca         1 6FI       0.568900
      8 C03         -6.6870     5.2350   -11.4410 ca         1 6FI       0.709200
      9 C04         -7.7900     5.1000   -12.3060 ca         1 6FI      -0.411600
     10 C05         -9.0600     5.1920   -11.7690 cp         1 6FI       0.554800
     11 C08         -9.6640     4.6580    -7.5360 c3         1 6FI      -0.214300
     12 C11        -10.2860     5.0480   -12.5690 cp         1 6FI      -0.211500
     13 C12        -11.5270     4.9300   -11.9320 ca         1 6FI      -0.049500
     14 C14        -12.6520     4.7120   -14.0510 ca         1 6FI       0.180100
     15 C16        -10.2670     5.0140   -13.9620 ca         1 6FI      -0.049500
     16 C18         -5.0340     4.9800   -13.2380 c3         1 6FI       0.217100
     17 C25        -15.3310     0.4930   -15.2450 c3         1 6FI       0.151600
     18 N02         -6.8800     5.4260   -10.1200 nb         1 6FI      -0.723000
     19 N06         -9.2270     5.4060   -10.4480 nb         1 6FI      -0.724000
     20 N23        -14.9610     1.6010   -16.0990 n3         1 6FI      -0.719600
     21 O09         -8.9710     7.1790    -7.9110 o          1 6FI      -0.572300
     22 O10         -7.1900     5.5350    -7.2510 o          1 6FI      -0.572300
     23 O19        -13.8240     4.5360   -14.6690 os         1 6FI      -0.319900
     24 S07         -8.4100     5.8330    -7.9910 sy         1 6FI       1.018900
     25 H1         -13.6370     4.6600   -12.1430 ha         1 6FI       0.141500
     26 H2         -11.3560     4.8350   -15.7810 ha         1 6FI       0.141500
     27 H3         -13.1760     3.5820   -16.3900 h1         1 6FI       0.041700
     28 H4         -13.5370     5.3050   -16.5720 h1         1 6FI       0.041700
     29 H5         -15.3070     3.9940   -17.5740 hc         1 6FI       0.051200
     30 H6         -15.9470     4.8600   -16.2050 hc         1 6FI       0.051200
     31 H7         -15.8980     2.8910   -14.7850 h1         1 6FI       0.037700
     32 H8         -16.8360     2.5850   -16.2360 h1         1 6FI       0.037700
     33 H9         -14.2840     0.3380   -17.6160 h1         1 6FI       0.030033
     34 H10        -15.9400     0.9150   -17.8660 h1         1 6FI       0.030033
     35 H11        -14.5620     1.9960   -18.1240 h1         1 6FI       0.030033
     36 H12         -7.6380     4.9120   -13.3580 ha         1 6FI       0.149000
     37 H13         -9.8720     4.8180    -6.4780 h1         1 6FI       0.106700
     38 H14        -10.5600     4.8290    -8.1240 h1         1 6FI       0.106700
     39 H15         -9.2870     3.6490    -7.6930 h1         1 6FI       0.106700
     40 H16        -11.5790     4.9590   -10.8530 ha         1 6FI       0.138500
     41 H17         -9.3390     5.1260   -14.5060 ha         1 6FI       0.138500
     42 H18         -3.9500     5.0120   -13.2930 h1         1 6FI       0.043033
     43 H19         -5.3660     4.0140   -13.6250 h1         1 6FI       0.043033
     44 H20         -5.4310     5.7640   -13.8850 h1         1 6FI       0.043033
     45 H21        -15.2790     0.7920   -14.1970 h1         1 6FI       0.030033
     46 H22        -16.3480     0.1140   -15.4350 h1         1 6FI       0.030033
     47 H23        -14.6390    -0.3380   -15.3890 h1         1 6FI       0.030033
     48 H24         -4.7070     5.2690   -11.1650 hn         1 6FI       0.460800
     49 N17         -5.4260     5.1750   -11.8640 nu         1 6FI      -0.869900
@<TRIPOS>BOND
     1     1    13 ar  
     2     1    14 ar  
     3     1    25 1   
     4     2    14 ar  
     5     2    15 ar  
     6     2    26 1   
     7     3     4 1   
     8     3    23 1   
     9     3    27 1   
    10     3    28 1   
    11     4     5 1   
    12     4    29 1   
    13     4    30 1   
    14     5    20 1   
    15     5    31 1   
    16     5    32 1   
    17     6    20 1   
    18     6    33 1   
    19     6    34 1   
    20     6    35 1   
    21     7    18 ar  
    22     7    19 ar  
    23     7    24 1   
    24     8     9 ar  
    25     8    18 ar  
    26     8    49 1   
    27     9    10 ar  
    28     9    36 1   
    29    10    12 1   
    30    10    19 ar  
    31    11    24 1   
    32    11    37 1   
    33    11    38 1   
    34    11    39 1   
    35    12    13 ar  
    36    12    15 ar  
    37    13    40 1   
    38    14    23 1   
    39    15    41 1   
    40    16    42 1   
    41    16    43 1   
    42    16    44 1   
    43    16    49 1   
    44    17    20 1   
    45    17    45 1   
    46    17    46 1   
    47    17    47 1   
    48    21    24 2   
    49    22    24 2   
    50    48    49 1   
@<TRIPOS>SUBSTRUCTURE
     1 6FI         1 TEMP              0 ****  ****    0 ROOT
