@<TRIPOS>MOLECULE
6FJ
   48    51     1     0     0
SMALL
bcc


@<TRIPOS>ATOM
      1 C1          -1.6450    -2.5750    -0.5120 ca         1 6FJ      -0.092000
      2 C2           0.5050     2.8880     0.6120 ca         1 6FJ       0.273100
      3 C3          -0.7640     3.2720     1.0320 ca         1 6FJ      -0.310000
      4 C7           0.6670     1.7400    -0.1970 ca         1 6FJ      -0.308600
      5 C8          -2.9250     0.7610    -0.7470 cc         1 6FJ       0.449500
      6 C14         -4.2770    -0.9750    -1.1730 c          1 6FJ       0.779500
      7 C16         -2.2310    -1.4830     0.1130 ca         1 6FJ       0.017600
      8 C19         -0.6060    -3.2080     1.5610 ca         1 6FJ      -0.101000
      9 C20          2.0400     1.3630    -0.6050 c          1 6FJ       0.708700
     10 C24          4.6470    -0.6660    -0.5040 cc         1 6FJ       0.201000
     11 C30          5.2650    -1.8600    -0.3310 cd         1 6FJ      -0.258300
     12 C4          -1.8880     2.5810     0.6100 ca         1 6FJ       0.254100
     13 C5          -1.7550     1.4930    -0.2690 ca         1 6FJ      -0.223900
     14 C6          -0.4830     1.0970    -0.6460 ca         1 6FJ       0.012000
     15 N9          -3.9330     1.2600    -1.3710 nd         1 6FJ      -0.454300
     16 N10         -3.0680    -0.6030    -0.5980 n          1 6FJ      -0.320500
     17 O12          1.5360     3.6300     1.0030 oh         1 6FJ      -0.502100
     18 N13         -4.7520     0.2110    -1.6230 ns         1 6FJ      -0.324900
     19 C17         -2.0030    -1.2810     1.4670 ca         1 6FJ       0.142900
     20 C18         -1.1840    -2.1170     2.1970 ca         1 6FJ      -0.167000
     21 N21          2.3410     0.0880    -0.9060 n          1 6FJ      -0.455800
     22 O22          2.9050     2.2510    -0.6630 o          1 6FJ      -0.641100
     23 C23          3.6420    -0.2060    -1.4980 c3         1 6FJ       0.069700
     24 C25         -0.8410    -3.4420     0.2130 ca         1 6FJ      -0.144000
     25 C26          1.5760    -1.0840    -0.5240 c3         1 6FJ       0.085300
     26 O27          5.0660     0.2060     0.4390 os         1 6FJ      -0.304800
     27 C28          5.9590    -0.4340     1.2210 cc         1 6FJ       0.240600
     28 C29          6.1280    -1.7080     0.7980 cd         1 6FJ      -0.276300
     29 F31         -2.5950    -0.2450     2.0690 f          1 6FJ      -0.125900
     30 H1          -1.8140    -2.7360    -1.5680 ha         1 6FJ       0.153000
     31 H2          -0.8630     4.1360     1.6800 ha         1 6FJ       0.157000
     32 H3           0.0310    -3.8730     2.1260 ha         1 6FJ       0.141000
     33 H4           5.1220    -2.7420    -0.9340 ha         1 6FJ       0.156000
     34 H5          -0.3940     0.2770    -1.3460 ha         1 6FJ       0.142000
     35 H6          -3.0900     3.6620     1.6130 ho         1 6FJ       0.437000
     36 H7           2.3130     3.3390     0.4700 ho         1 6FJ       0.486000
     37 H8          -5.6190     0.3500    -2.1170 hn         1 6FJ       0.379500
     38 H9          -1.0150    -1.9250     3.2490 ha         1 6FJ       0.156000
     39 H10          3.9960     0.6670    -2.0430 h1         1 6FJ       0.078200
     40 H11          3.5020    -1.0050    -2.2280 h1         1 6FJ       0.078200
     41 H12         -0.3890    -4.2920    -0.2790 ha         1 6FJ       0.142000
     42 H13          2.2570    -1.8300    -0.1150 h1         1 6FJ       0.047367
     43 H14          0.8490    -0.8570     0.2500 h1         1 6FJ       0.047367
     44 H15          1.0630    -1.5280    -1.3780 h1         1 6FJ       0.047367
     45 H16          6.3880     0.1340     2.0300 h4         1 6FJ       0.055100
     46 H17          6.7820    -2.4470     1.2310 ha         1 6FJ       0.161000
     47 O15         -4.7630    -2.0880    -1.2320 o          1 6FJ      -0.626500
     48 O11         -3.1180     2.9180     1.0000 oh         1 6FJ      -0.464100
@<TRIPOS>BOND
     1     1     7 ar  
     2     1    24 ar  
     3     1    30 1   
     4     2     3 ar  
     5     2     4 ar  
     6     2    17 1   
     7     3    12 ar  
     8     3    31 1   
     9     4     9 1   
    10     4    14 ar  
    11     5    13 1   
    12     5    15 2   
    13     5    16 1   
    14     6    16 1   
    15     6    18 1   
    16     6    47 2   
    17     7    16 1   
    18     7    19 ar  
    19     8    20 ar  
    20     8    24 ar  
    21     8    32 1   
    22     9    21 1   
    23     9    22 2   
    24    10    11 2   
    25    10    23 1   
    26    10    26 1   
    27    11    28 1   
    28    11    33 1   
    29    12    13 ar  
    30    12    48 1   
    31    13    14 ar  
    32    14    34 1   
    33    15    18 1   
    34    17    36 1   
    35    18    37 1   
    36    19    20 ar  
    37    19    29 1   
    38    20    38 1   
    39    21    23 1   
    40    21    25 1   
    41    23    39 1   
    42    23    40 1   
    43    24    41 1   
    44    25    42 1   
    45    25    43 1   
    46    25    44 1   
    47    26    27 1   
    48    27    28 2   
    49    27    45 1   
    50    28    46 1   
    51    35    48 1   
@<TRIPOS>SUBSTRUCTURE
     1 6FJ         1 TEMP              0 ****  ****    0 ROOT
