@<TRIPOS>MOLECULE
6FJ
   48    51     1     0     0
SMALL
No Charge or Current Charge


@<TRIPOS>ATOM
      1 C1          -1.8520    -2.7220    -0.6370 ca         1 6FJ      -0.074000
      2 C2           0.4710     2.9300     0.6770 ca         1 6FJ       0.273100
      3 C3          -0.7950     3.3610     1.0780 ca         1 6FJ      -0.292000
      4 C7           0.6260     1.7720    -0.1060 ca         1 6FJ      -0.308600
      5 C8          -3.0010     0.7980    -0.6120 cc         1 6FJ       0.449500
      6 C14         -4.2200    -0.9080    -1.4450 c          1 6FJ       0.570000
      7 C16         -2.2980    -1.5620     0.0340 ca         1 6FJ       0.017600
      8 C19         -0.5830    -3.4180     1.3220 ca         1 6FJ      -0.083000
      9 C20          2.0080     1.3410    -0.5380 c          1 6FJ       0.641700
     10 C24          4.6560    -0.6570    -0.5060 cc         1 6FJ       0.091300
     11 C30          5.0730    -1.8180     0.0860 cd         1 6FJ      -0.175000
     12 C4          -1.9370     2.6590     0.6810 ca         1 6FJ       0.254100
     13 C5          -1.8180     1.5120    -0.1240 ca         1 6FJ      -0.223900
     14 C6          -0.5360     1.0860    -0.5270 ca         1 6FJ       0.030000
     15 N9          -4.0060     1.3810    -1.2670 nd         1 6FJ      -0.454300
     16 N10         -3.0850    -0.5990    -0.7040 n          1 6FJ      -0.253500
     17 O12          1.5520     3.6610     1.0480 oh         1 6FJ      -0.541100
     18 N13         -4.7190     0.3190    -1.7450 ns         1 6FJ      -0.371400
     19 C17         -1.8350    -1.3290     1.3540 ca         1 6FJ       0.178000
     20 C18         -0.9980    -2.2580     1.9950 ca         1 6FJ      -0.149000
     21 N21          2.2680    -0.0170    -0.8430 n          1 6FJ      -0.388800
     22 O22          2.8780     2.1940    -0.6740 o          1 6FJ      -0.641100
     23 C23          3.5480    -0.3950    -1.4960 c3         1 6FJ       0.069700
     24 C25         -1.0100    -3.6470     0.0050 ca         1 6FJ      -0.126000
     25 C26          1.5570    -1.1080    -0.1370 c3         1 6FJ       0.085300
     26 O27          5.4450     0.3880    -0.0760 os         1 6FJ      -0.216000
     27 C28          6.3610    -0.1390     0.8070 cc         1 6FJ       0.130900
     28 C29          6.1570    -1.4870     0.9240 cd         1 6FJ      -0.193000
     29 F31         -2.2610    -0.2600     2.0640 f          1 6FJ      -0.161000
     30 H1          -2.1520    -2.9060    -1.6660 ha         1 6FJ       0.135000
     31 H2          -0.8800     4.2520     1.6930 ha         1 6FJ       0.139000
     32 H3           0.0670    -4.1360     1.8190 ha         1 6FJ       0.123000
     33 H4           4.6460    -2.8040    -0.0660 ha         1 6FJ       0.138000
     34 H5          -0.4560     0.2420    -1.2080 ha         1 6FJ       0.124000
     35 H6          -3.0160     3.9020     1.6440 ho         1 6FJ       0.476000
     36 H7           2.2980     3.3140     0.4920 ho         1 6FJ       0.525000
     37 H8          -5.5760     0.4020    -2.2950 hn         1 6FJ       0.493000
     38 H9          -0.6760    -2.0770     3.0180 ha         1 6FJ       0.138000
     39 H10          3.8610     0.3970    -2.1890 h1         1 6FJ       0.078200
     40 H11          3.3870    -1.3010    -2.0950 h1         1 6FJ       0.078200
     41 H12         -0.6810    -4.5390    -0.5240 ha         1 6FJ       0.124000
     42 H13          2.2630    -1.8880     0.1760 h1         1 6FJ       0.047367
     43 H14          1.0570    -0.7250     0.7610 h1         1 6FJ       0.047367
     44 H15          0.8170    -1.5620    -0.8070 h1         1 6FJ       0.047367
     45 H16          7.0760     0.5330     1.2630 h4         1 6FJ       0.055100
     46 H17          6.7290    -2.1670     1.5470 ha         1 6FJ       0.143000
     47 O15         -4.6900    -1.9980    -1.7290 o          1 6FJ      -0.551000
     48 O11         -3.1550     3.0960     1.1060 oh         1 6FJ      -0.503100
@<TRIPOS>BOND
     1     1     7 ar  
     2     1    24 ar  
     3     1    30 1   
     4     2     3 ar  
     5     2     4 ar  
     6     2    17 1   
     7     3    12 ar  
     8     3    31 1   
     9     4     9 1   
    10     4    14 ar  
    11     5    13 1   
    12     5    15 2   
    13     5    16 1   
    14     6    16 1   
    15     6    18 1   
    16     6    47 2   
    17     7    16 1   
    18     7    19 ar  
    19     8    20 ar  
    20     8    24 ar  
    21     8    32 1   
    22     9    21 1   
    23     9    22 2   
    24    10    11 2   
    25    10    23 1   
    26    10    26 1   
    27    11    28 1   
    28    11    33 1   
    29    12    13 ar  
    30    12    48 1   
    31    13    14 ar  
    32    14    34 1   
    33    15    18 1   
    34    17    36 1   
    35    18    37 1   
    36    19    20 ar  
    37    19    29 1   
    38    20    38 1   
    39    21    23 1   
    40    21    25 1   
    41    23    39 1   
    42    23    40 1   
    43    24    41 1   
    44    25    42 1   
    45    25    43 1   
    46    25    44 1   
    47    26    27 1   
    48    27    28 2   
    49    27    45 1   
    50    28    46 1   
    51    35    48 1   
@<TRIPOS>SUBSTRUCTURE
     1 6FJ         1 TEMP              0 ****  ****    0 ROOT
