@<TRIPOS>MOLECULE
6FL
   21    20     1     0     0
SMALL
bcc


@<TRIPOS>ATOM
      1 C           49.9990    16.0570     1.8670 c          1 6FL       0.927600
      2 N           51.5530    16.0080    -0.0720 n8         1 6FL      -0.882800
      3 O           49.4080    16.7330     2.7390 o          1 6FL      -0.827300
      4 CA          50.7810    16.8720     0.8060 c3         1 6FL       0.019500
      5 CB          49.8300    17.6790    -0.0930 c3         1 6FL      -0.042400
      6 CG          49.0340    18.7830     0.6330 c3         1 6FL      -0.220700
      7 FAC         47.0250    17.5750     0.5150 f          1 6FL      -0.239133
      8 FAD         46.8360    19.6820     0.8600 f          1 6FL      -0.239133
      9 FAE         47.3920    18.9610    -1.0870 f          1 6FL      -0.239133
     10 FAF         49.6800    20.5530    -0.8330 f          1 6FL      -0.239133
     11 FAG         49.0660    21.1130     1.1450 f          1 6FL      -0.239133
     12 FAH         50.9460    20.1240     0.8500 f          1 6FL      -0.239133
     13 CD1         47.5720    18.7620     0.2260 c3         1 6FL       0.671400
     14 CD2         49.6700    20.1470     0.4430 c3         1 6FL       0.671400
     15 OXT         50.0240    14.8180     1.7800 o          1 6FL      -0.827300
     16 H           52.3030    16.5410    -0.4960 hn         1 6FL       0.326800
     17 H2          51.9860    15.2740     0.4710 hn         1 6FL       0.326800
     18 HA          51.4150    17.5800     1.3590 h1         1 6FL       0.009700
     19 HB          50.4080    18.1030    -0.9170 hc         1 6FL       0.050700
     20 HBA         49.1530    16.9660    -0.5670 hc         1 6FL       0.050700
     21 HG          49.0570    18.5580     1.7060 hc         1 6FL       0.180700
@<TRIPOS>BOND
     1     1     3 1   
     2     1     4 1   
     3     1    15 1   
     4     2     4 1   
     5     2    16 1   
     6     2    17 1   
     7     4     5 1   
     8     4    18 1   
     9     5     6 1   
    10     5    19 1   
    11     5    20 1   
    12     6    13 1   
    13     6    14 1   
    14     6    21 1   
    15     7    13 1   
    16     8    13 1   
    17     9    13 1   
    18    10    14 1   
    19    11    14 1   
    20    12    14 1   
@<TRIPOS>SUBSTRUCTURE
     1 6FL         1 TEMP              0 ****  ****    0 ROOT
