@<TRIPOS>MOLECULE
6FP
   19    20     1     0     0
SMALL
No Charge or Current Charge


@<TRIPOS>ATOM
      1 O9          -4.5780    -0.1690     0.0750 o          1 6FP      -0.514100
      2 C9          -3.5910     0.5650     0.0660 c          1 6FP       0.495400
      3 C6          -2.1660     0.0640     0.0270 ca         1 6FP       0.132500
      4 N5          -1.1480     0.9650     0.0200 nb         1 6FP      -0.531000
      5 C4A          0.1210     0.4590    -0.0160 ca         1 6FP       0.131500
      6 C4           1.2940     1.3980    -0.0280 c          1 6FP       0.494500
      7 O4           1.2120     2.6190    -0.0150 o          1 6FP      -0.483000
      8 N3           2.4950     0.7730    -0.0580 ns         1 6FP      -0.459400
      9 C2           2.6400    -0.5610    -0.0840 cc         1 6FP       0.764800
     10 N2           3.8710    -1.0120    -0.1130 nv         1 6FP      -1.047200
     11 N1           1.7100    -1.4740    -0.0830 nd         1 6FP      -0.780700
     12 C8A          0.3970    -0.9430    -0.0460 ca         1 6FP       0.355000
     13 N8          -0.6420    -1.8100    -0.0390 nb         1 6FP      -0.129000
     14 C7          -1.8990    -1.3190    -0.0030 ca         1 6FP       0.137900
     15 H2          -3.7090     1.6710     0.0880 h4         1 6FP       0.020200
     16 H4           3.3140     1.3570    -0.0950 hn         1 6FP       0.328500
     17 H5           3.9100    -2.0110     0.0420 hn         1 6FP       0.517500
     18 H6           4.5580    -0.4820     0.4090 hn         1 6FP       0.517500
     19 H7          -2.7030    -2.0530     0.0020 h4         1 6FP       0.050100
@<TRIPOS>BOND
     1     1     2 2   
     2     2     3 1   
     3     2    15 1   
     4     3     4 ar  
     5     3    14 ar  
     6     4     5 ar  
     7     5     6 1   
     8     5    12 ar  
     9     6     7 2   
    10     6     8 1   
    11     8     9 1   
    12     8    16 1   
    13     9    10 1   
    14     9    11 2   
    15    10    17 1   
    16    10    18 1   
    17    11    12 1   
    18    12    13 ar  
    19    13    14 ar  
    20    14    19 1   
@<TRIPOS>SUBSTRUCTURE
     1 6FP         1 TEMP              0 ****  ****    0 ROOT
