@<TRIPOS>MOLECULE
6FP
   19    20     1     0     0
SMALL
abcg2


@<TRIPOS>ATOM
      1 O9          -4.4990    -0.0960     0.0210 o          1 6FP      -0.514100
      2 C9          -3.5020     0.5860     0.0200 c          1 6FP       0.495400
      3 C6          -2.1350     0.0440     0.0120 ca         1 6FP       0.132500
      4 N5          -1.1460     0.9200     0.0130 nb         1 6FP      -0.531000
      5 C4A          0.0830     0.4450     0.0060 ca         1 6FP       0.131500
      6 C4           1.2010     1.3940     0.0060 c          1 6FP       0.494500
      7 O4           1.1000     2.5990     0.0090 o          1 6FP      -0.483000
      8 N3           2.4280     0.7660     0.0030 ns         1 6FP      -0.459400
      9 C2           2.6010    -0.5890     0.0000 cc         1 6FP       0.764800
     10 N2           3.8480    -1.0370    -0.0040 nv         1 6FP      -1.047200
     11 N1           1.6050    -1.4430    -0.0040 nd         1 6FP      -0.780700
     12 C8A          0.3620    -0.9430    -0.0010 ca         1 6FP       0.355000
     13 N8          -0.6560    -1.8230    -0.0040 nb         1 6FP      -0.129000
     14 C7          -1.8720    -1.3370     0.0020 ca         1 6FP       0.137900
     15 H2          -3.5430     1.6880     0.0270 h4         1 6FP       0.020200
     16 H4           3.2430     1.3670     0.0020 hn         1 6FP       0.328500
     17 H5           4.0090    -2.0310     0.0080 hn         1 6FP       0.517500
     18 H6           4.6480    -0.4280     0.0340 hn         1 6FP       0.517500
     19 H7          -2.6900    -2.0480    -0.0000 h4         1 6FP       0.050100
@<TRIPOS>BOND
     1     1     2 2   
     2     2     3 1   
     3     2    15 1   
     4     3     4 ar  
     5     3    14 ar  
     6     4     5 ar  
     7     5     6 1   
     8     5    12 ar  
     9     6     7 2   
    10     6     8 1   
    11     8     9 1   
    12     8    16 1   
    13     9    10 1   
    14     9    11 2   
    15    10    17 1   
    16    10    18 1   
    17    11    12 1   
    18    12    13 ar  
    19    13    14 ar  
    20    14    19 1   
@<TRIPOS>SUBSTRUCTURE
     1 6FP         1 TEMP              0 ****  ****    0 ROOT
