@<TRIPOS>MOLECULE
6FQ
   39    43     1     0     0
SMALL
bcc


@<TRIPOS>ATOM
      1 N1           3.2520     3.0950    -0.1770 ns         1 6FQ      -0.626500
      2 N3           0.8330    -0.0900     0.3630 na         1 6FQ      -0.052200
      3 C4           2.9560     0.7510    -0.3490 cc         1 6FQ      -0.256600
      4 C5           3.3670    -0.4990    -0.6610 cd         1 6FQ       0.044000
      5 C6           1.2190    -1.3790     0.0560 ca         1 6FQ       0.095700
      6 C7           2.5060    -1.6100    -0.4660 ca         1 6FQ      -0.125000
      7 C8           2.9100    -2.9140    -0.7820 ca         1 6FQ      -0.059000
      8 C10          0.7860    -3.7320    -0.0730 ca         1 6FQ       0.055000
      9 C13         -0.4800     0.1390     0.8900 ca         1 6FQ      -0.012200
     10 C15         -1.9520     0.3300     2.7600 ca         1 6FQ      -0.120000
     11 C17         -2.8110     0.5270     0.5180 ca         1 6FQ      -0.132500
     12 C1           3.8300     1.9180    -0.5460 c          1 6FQ       0.738100
     13 C2           1.9670     3.2620     0.3420 c          1 6FQ       0.873900
     14 N2           1.1810     2.1620     0.5100 nd         1 6FQ      -0.443400
     15 C3           1.6460     0.9930     0.1860 cc         1 6FQ       0.211700
     16 C9           0.3550    -2.4580     0.2530 ca         1 6FQ      -0.141000
     17 C11          2.0650    -3.9770    -0.5920 ca         1 6FQ      -0.127000
     18 C12         -0.1070    -4.8300     0.1270 cg         1 6FQ       0.217800
     19 N4          -0.8230    -5.7180     0.2830 n1         1 6FQ      -0.329800
     20 O1           1.5900     4.3800     0.6270 o          1 6FQ      -0.577500
     21 O2           4.9550     1.8470    -0.9940 o          1 6FQ      -0.603500
     22 C14         -0.6730     0.1350     2.2620 ca         1 6FQ      -0.082000
     23 C16         -3.0170     0.5250     1.8950 ca         1 6FQ      -0.099000
     24 C18         -1.5270     0.3330     0.0120 ca         1 6FQ      -0.057000
     25 C19         -3.9070     0.7240    -0.4210 cc         1 6FQ       0.454000
     26 N5          -5.1900     0.9430    -0.1210 na         1 6FQ      -0.159400
     27 N6          -3.8190     0.7200    -1.7320 nd         1 6FQ      -0.383000
     28 N7          -5.0460     0.9360    -2.1940 nd         1 6FQ      -0.036000
     29 N8          -5.8800     1.0730    -1.2400 nc         1 6FQ      -0.197800
     30 H1           3.8020     3.9370    -0.2930 hn         1 6FQ       0.340500
     31 H2           4.3590    -0.6620    -1.0630 ha         1 6FQ       0.171000
     32 H3           3.9030    -3.0730    -1.1810 ha         1 6FQ       0.152000
     33 H4          -2.1200     0.3280     3.8280 ha         1 6FQ       0.148000
     34 H6          -0.6400    -2.3180     0.6500 ha         1 6FQ       0.164000
     35 H7           2.3740    -4.9830    -0.8350 ha         1 6FQ       0.159000
     36 H8           0.1630    -0.0190     2.9310 ha         1 6FQ       0.152000
     37 H9          -4.0050     0.6720     2.3120 ha         1 6FQ       0.131000
     38 H10         -1.3520     0.3290    -1.0560 ha         1 6FQ       0.175000
     39 H11         -5.6550     1.0210     0.7730 hn         1 6FQ       0.337700
@<TRIPOS>BOND
     1     1    12 1   
     2     1    13 1   
     3     1    30 1   
     4     2     5 1   
     5     2     9 1   
     6     2    15 1   
     7     3     4 2   
     8     3    12 1   
     9     3    15 1   
    10     4     6 1   
    11     4    31 1   
    12     5     6 ar  
    13     5    16 ar  
    14     6     7 ar  
    15     7    17 ar  
    16     7    32 1   
    17     8    16 ar  
    18     8    17 ar  
    19     8    18 1   
    20     9    22 ar  
    21     9    24 ar  
    22    10    22 ar  
    23    10    23 ar  
    24    10    33 1   
    25    11    23 ar  
    26    11    24 ar  
    27    11    25 1   
    28    12    21 2   
    29    13    14 1   
    30    13    20 2   
    31    14    15 2   
    32    16    34 1   
    33    17    35 1   
    34    18    19 3   
    35    22    36 1   
    36    23    37 1   
    37    24    38 1   
    38    25    26 1   
    39    25    27 2   
    40    26    29 1   
    41    26    39 1   
    42    27    28 1   
    43    28    29 2   
@<TRIPOS>SUBSTRUCTURE
     1 6FQ         1 TEMP              0 ****  ****    0 ROOT
