@<TRIPOS>MOLECULE
6FQ
   39    43     1     0     0
SMALL
No Charge or Current Charge


@<TRIPOS>ATOM
      1 N1           3.2430     3.1310    -0.2110 ns         1 6FQ      -0.492500
      2 N3           0.8020    -0.1230     0.3700 na         1 6FQ       0.049200
      3 C4           2.9920     0.7800    -0.3640 cc         1 6FQ      -0.256600
      4 C5           3.4230    -0.4930    -0.6610 cd         1 6FQ       0.062000
      5 C6           1.2400    -1.4300     0.0640 ca         1 6FQ       0.045000
      6 C7           2.5400    -1.6400    -0.4500 ca         1 6FQ      -0.125000
      7 C8           2.9860    -2.9390    -0.7570 ca         1 6FQ      -0.041000
      8 C10          0.8450    -3.8520    -0.0480 ca         1 6FQ       0.055000
      9 C13         -0.4840     0.1040     0.8780 ca         1 6FQ      -0.012200
     10 C15         -2.0020     0.2830     2.7690 ca         1 6FQ      -0.102000
     11 C17         -2.8620     0.5680     0.4950 ca         1 6FQ      -0.132500
     12 C1           3.8450     1.9630    -0.5610 c          1 6FQ       0.595600
     13 C2           1.9880     3.3110     0.2820 c          1 6FQ       0.731400
     14 N2           1.2000     2.1630     0.4590 nd         1 6FQ      -0.443400
     15 C3           1.6730     0.9670     0.1550 cc         1 6FQ       0.161000
     16 C9           0.3990    -2.5530     0.2600 ca         1 6FQ      -0.123000
     17 C11          2.1420    -4.0420    -0.5570 ca         1 6FQ      -0.109000
     18 C12         -0.0210    -4.9820     0.1580 cg         1 6FQ       0.307000
     19 N4          -0.7320    -5.8930     0.3290 n1         1 6FQ      -0.419000
     20 O1           1.5650     4.4200     0.5580 o          1 6FQ      -0.502000
     21 O2           4.9850     1.9370    -0.9940 o          1 6FQ      -0.528000
     22 C14         -0.7100     0.0690     2.2650 ca         1 6FQ      -0.064000
     23 C16         -3.0720     0.5310     1.8920 ca         1 6FQ      -0.081000
     24 C18         -1.5560     0.3510    -0.0010 ca         1 6FQ      -0.039000
     25 C19         -3.9700     0.8260    -0.4370 cc         1 6FQ       0.454000
     26 N5          -5.2730     1.0550    -0.1010 na         1 6FQ      -0.209700
     27 N6          -3.9030     0.8790    -1.7520 nd         1 6FQ      -0.383000
     28 N7          -5.1770     1.1420    -2.2010 nd         1 6FQ      -0.036000
     29 N8          -6.0240     1.2520    -1.2140 nc         1 6FQ      -0.197800
     30 H1           3.7910     3.9680    -0.3300 hn         1 6FQ       0.340500
     31 H2           4.4240    -0.6480    -1.0550 ha         1 6FQ       0.153000
     32 H3           3.9880    -3.0960    -1.1520 ha         1 6FQ       0.134000
     33 H4          -2.1760     0.2560     3.8430 ha         1 6FQ       0.130000
     34 H6          -0.6080    -2.4300     0.6530 ha         1 6FQ       0.146000
     35 H7           2.4960    -5.0420    -0.7980 ha         1 6FQ       0.141000
     36 H8           0.1140    -0.1240     2.9490 ha         1 6FQ       0.134000
     37 H9          -4.0620     0.6930     2.3120 ha         1 6FQ       0.113000
     38 H10         -1.3660     0.3730    -1.0730 ha         1 6FQ       0.157000
     39 H11         -5.6670     1.0820     0.8300 hn         1 6FQ       0.388000
@<TRIPOS>BOND
     1     1    12 1   
     2     1    13 1   
     3     1    30 1   
     4     2     5 1   
     5     2     9 1   
     6     2    15 1   
     7     3     4 2   
     8     3    12 1   
     9     3    15 1   
    10     4     6 1   
    11     4    31 1   
    12     5     6 ar  
    13     5    16 ar  
    14     6     7 ar  
    15     7    17 ar  
    16     7    32 1   
    17     8    16 ar  
    18     8    17 ar  
    19     8    18 1   
    20     9    22 ar  
    21     9    24 ar  
    22    10    22 ar  
    23    10    23 ar  
    24    10    33 1   
    25    11    23 ar  
    26    11    24 ar  
    27    11    25 1   
    28    12    21 2   
    29    13    14 1   
    30    13    20 2   
    31    14    15 2   
    32    16    34 1   
    33    17    35 1   
    34    18    19 3   
    35    22    36 1   
    36    23    37 1   
    37    24    38 1   
    38    25    26 1   
    39    25    27 2   
    40    26    29 1   
    41    26    39 1   
    42    27    28 1   
    43    28    29 2   
@<TRIPOS>SUBSTRUCTURE
     1 6FQ         1 TEMP              0 ****  ****    0 ROOT
