@<TRIPOS>MOLECULE
6FR
   36    37     1     0     0
SMALL
bcc


@<TRIPOS>ATOM
      1 O1          -1.0720    -1.4060     1.6690 o          1 6FR      -0.602800
      2 C3           5.1180     0.3790    -0.1290 c5         1 6FR      -0.078900
      3 C5           1.5160    -0.8030    -0.1210 c3         1 6FR      -0.034400
      4 C7          -3.0560     0.0890    -1.2910 c5         1 6FR       0.213800
      5 C8          -3.6240     1.4990    -1.1600 c5         1 6FR      -0.090400
      6 C9          -3.9930     1.6030     0.3160 c5         1 6FR      -0.090400
      7 S           -1.1940    -1.0990     0.2490 s6         1 6FR       1.237900
      8 O           -1.2670    -2.1960    -0.7080 o          1 6FR      -0.602800
      9 N           -2.5420    -0.1990     0.0600 n3         1 6FR      -0.764500
     10 C10         -2.8460     0.8810     1.0080 c5         1 6FR       0.213800
     11 C6           0.1910    -0.0570    -0.2030 c3         1 6FR      -0.232600
     12 C1           2.6940     0.0950    -0.4780 c5         1 6FR      -0.063700
     13 C2           4.0340    -0.6600    -0.4940 c5         1 6FR      -0.077400
     14 C4           4.3640     1.6940     0.1300 c5         1 6FR      -0.078900
     15 C            2.9490     1.2510     0.4890 c5         1 6FR      -0.077400
     16 H2           5.8650     0.4900    -0.9150 hc         1 6FR       0.041450
     17 H3           1.6600    -1.1970     0.8880 hc         1 6FR       0.058700
     18 H4           1.4920    -1.6590    -0.8010 hc         1 6FR       0.058700
     19 H5          -3.8280    -0.6360    -1.5530 h1         1 6FR       0.057950
     20 H6          -2.2780     0.0350    -2.0550 h1         1 6FR       0.057950
     21 H7          -2.8550     2.2360    -1.4040 hc         1 6FR       0.056200
     22 H8          -4.4670     1.6620    -1.8300 hc         1 6FR       0.056200
     23 H9          -4.0910     2.6310     0.6620 hc         1 6FR       0.056200
     24 H10         -4.9360     1.0900     0.5160 hc         1 6FR       0.056200
     25 H11         -1.9970     1.5600     1.1440 h1         1 6FR       0.057950
     26 H12         -3.1220     0.4790     1.9810 h1         1 6FR       0.057950
     27 H13          0.1670     0.7990     0.4740 h1         1 6FR       0.086700
     28 H14          0.0040     0.3070    -1.2160 h1         1 6FR       0.086700
     29 H15          2.5180     0.5180    -1.4750 hc         1 6FR       0.046700
     30 H16          4.2140    -1.1330    -1.4610 hc         1 6FR       0.042700
     31 H17          4.0130    -1.4630     0.2480 hc         1 6FR       0.042700
     32 H18          4.8320     2.3040     0.9040 hc         1 6FR       0.041450
     33 H19          4.3350     2.3000    -0.7790 hc         1 6FR       0.041450
     34 H20          2.2190     2.0580     0.4100 hc         1 6FR       0.042700
     35 H21          2.9190     0.8800     1.5200 hc         1 6FR       0.042700
     36 H1           5.6530     0.0660     0.7690 hc         1 6FR       0.041450
@<TRIPOS>BOND
     1     1     7 2   
     2     2    13 1   
     3     2    14 1   
     4     2    16 1   
     5     2    36 1   
     6     3    11 1   
     7     3    12 1   
     8     3    17 1   
     9     3    18 1   
    10     4     5 1   
    11     4     9 1   
    12     4    19 1   
    13     4    20 1   
    14     5     6 1   
    15     5    21 1   
    16     5    22 1   
    17     6    10 1   
    18     6    23 1   
    19     6    24 1   
    20     7     8 2   
    21     7     9 1   
    22     7    11 1   
    23     9    10 1   
    24    10    25 1   
    25    10    26 1   
    26    11    27 1   
    27    11    28 1   
    28    12    13 1   
    29    12    15 1   
    30    12    29 1   
    31    13    30 1   
    32    13    31 1   
    33    14    15 1   
    34    14    32 1   
    35    14    33 1   
    36    15    34 1   
    37    15    35 1   
@<TRIPOS>SUBSTRUCTURE
     1 6FR         1 TEMP              0 ****  ****    0 ROOT
