@<TRIPOS>MOLECULE
6FR
   36    37     1     0     0
SMALL
No Charge or Current Charge


@<TRIPOS>ATOM
      1 O1          -1.2650    -1.5860     1.5290 o          1 6FR      -0.532000
      2 C3           5.1450     0.3870    -0.3820 c5         1 6FR      -0.078900
      3 C5           1.5280    -0.8870    -0.0680 c3         1 6FR      -0.034400
      4 C7          -2.9160     0.4040    -1.4100 c5         1 6FR       0.213800
      5 C8          -4.1230     1.3520    -1.1540 c5         1 6FR      -0.090400
      6 C9          -4.0810     1.6200     0.3820 c5         1 6FR      -0.090400
      7 S           -1.2530    -1.1490     0.1290 s6         1 6FR       1.207100
      8 O           -1.3600    -2.1490    -0.9380 o          1 6FR      -0.532000
      9 N           -2.5960    -0.0970    -0.0600 n3         1 6FR      -0.764500
     10 C10         -2.6830     1.1020     0.7870 c5         1 6FR       0.213800
     11 C6           0.1920    -0.1110    -0.1720 c3         1 6FR      -0.343400
     12 C1           2.7740    -0.0170    -0.3540 c5         1 6FR      -0.063700
     13 C2           4.1200    -0.7700    -0.2220 c5         1 6FR      -0.077400
     14 C4           4.4410     1.6300     0.2550 c5         1 6FR      -0.078900
     15 C            3.0270     1.1240     0.6650 c5         1 6FR      -0.077400
     16 H2           5.3660     0.5700    -1.4410 hc         1 6FR       0.041450
     17 H3           1.6100    -1.3300     0.9340 hc         1 6FR       0.058700
     18 H4           1.5080    -1.7270    -0.7750 hc         1 6FR       0.058700
     19 H5          -3.1740    -0.4040    -2.1080 h1         1 6FR       0.057950
     20 H6          -2.0720     0.9620    -1.8400 h1         1 6FR       0.057950
     21 H7          -4.0280     2.2750    -1.7360 hc         1 6FR       0.056200
     22 H8          -5.0700     0.8840    -1.4450 hc         1 6FR       0.056200
     23 H9          -4.2210     2.6780     0.6330 hc         1 6FR       0.056200
     24 H10         -4.8660     1.0560     0.8990 hc         1 6FR       0.056200
     25 H11         -1.8970     1.8340     0.5500 h1         1 6FR       0.057950
     26 H12         -2.6290     0.8720     1.8600 h1         1 6FR       0.057950
     27 H13          0.1570     0.6920     0.5710 h1         1 6FR       0.086700
     28 H14          0.0710     0.3100    -1.1750 h1         1 6FR       0.086700
     29 H15          2.6540     0.3860    -1.3690 hc         1 6FR       0.046700
     30 H16          4.2470    -1.5430    -0.9880 hc         1 6FR       0.042700
     31 H17          4.2190    -1.2600     0.7550 hc         1 6FR       0.042700
     32 H18          4.9940     2.0180     1.1180 hc         1 6FR       0.041450
     33 H19          4.3720     2.4480    -0.4720 hc         1 6FR       0.041450
     34 H20          2.2750     1.9190     0.6050 hc         1 6FR       0.042700
     35 H21          3.0220     0.7520     1.6970 hc         1 6FR       0.042700
     36 H1           6.0990     0.1550     0.1050 hc         1 6FR       0.041450
@<TRIPOS>BOND
     1     1     7 2   
     2     2    13 1   
     3     2    14 1   
     4     2    16 1   
     5     2    36 1   
     6     3    11 1   
     7     3    12 1   
     8     3    17 1   
     9     3    18 1   
    10     4     5 1   
    11     4     9 1   
    12     4    19 1   
    13     4    20 1   
    14     5     6 1   
    15     5    21 1   
    16     5    22 1   
    17     6    10 1   
    18     6    23 1   
    19     6    24 1   
    20     7     8 2   
    21     7     9 1   
    22     7    11 1   
    23     9    10 1   
    24    10    25 1   
    25    10    26 1   
    26    11    27 1   
    27    11    28 1   
    28    12    13 1   
    29    12    15 1   
    30    12    29 1   
    31    13    30 1   
    32    13    31 1   
    33    14    15 1   
    34    14    32 1   
    35    14    33 1   
    36    15    34 1   
    37    15    35 1   
@<TRIPOS>SUBSTRUCTURE
     1 6FR         1 TEMP              0 ****  ****    0 ROOT
