@<TRIPOS>MOLECULE
6FS
   55    56     1     0     0
SMALL
bcc


@<TRIPOS>ATOM
      1 C1           6.2830     0.9540    -0.1100 ca         1 6FS      -0.340000
      2 C2           4.9410     1.2240     0.0820 ca         1 6FS       0.245600
      3 C3           3.9700     0.1890     0.1160 ca         1 6FS      -0.195800
      4 C5           5.7870    -1.4150    -0.2480 ca         1 6FS      -0.340000
      5 C6           6.7010    -0.3670    -0.2740 ca         1 6FS       0.236100
      6 C7           8.5280    -1.8430    -0.6400 c3         1 6FS       0.127700
      7 C8           3.8890    -3.4470    -0.1640 c3         1 6FS       0.125700
      8 C10          5.3780     3.5580     0.2350 c3         1 6FS       0.125700
      9 C11          1.4880    -0.2240     0.3880 ce         1 6FS      -0.373100
     10 C12         -0.9080     0.4330    -0.9190 c3         1 6FS      -0.092300
     11 C13         -2.6590     2.2180    -0.8740 ca         1 6FS      -0.165000
     12 C14         -3.9870     2.6150    -0.7140 ca         1 6FS      -0.177000
     13 C15         -4.9740     1.6840    -0.4510 ca         1 6FS       0.051100
     14 C16         -4.6510     0.3080    -0.3330 ca         1 6FS       0.202600
     15 C19         -6.6920     3.3240    -0.3700 c3         1 6FS       0.134700
     16 C21         -6.6610    -2.6410     0.8100 c          1 6FS       0.927600
     17 O7          -6.5690    -3.8650     1.0080 o          1 6FS      -0.832300
     18 S1          -0.0750     0.5120     0.6820 sy         1 6FS       1.038900
     19 C18         -2.3260     0.8800    -0.7730 ca         1 6FS      -0.069300
     20 O8          -7.6520    -1.9120     1.0110 o          1 6FS      -0.832300
     21 O4          -0.8110    -0.3500     1.6100 o          1 6FS      -0.595300
     22 O3           4.4740     2.4670     0.2460 os         1 6FS      -0.302400
     23 C17         -3.3180    -0.0610    -0.4920 ca         1 6FS      -0.193000
     24 C9           2.5850     0.5460     0.3260 cf         1 6FS       0.072800
     25 O1           8.0140    -0.5360    -0.4530 os         1 6FS      -0.317900
     26 C4           4.4380    -1.1300    -0.0550 ca         1 6FS       0.245600
     27 C20         -5.3830    -1.9560     0.2810 c3         1 6FS       0.040800
     28 O5           0.0890     1.9240     1.0350 o          1 6FS      -0.595300
     29 O2           3.5120    -2.0890    -0.0190 os         1 6FS      -0.302400
     30 H1           7.0270     1.7370    -0.1370 ha         1 6FS       0.146500
     31 H5           6.1150    -2.4350    -0.3800 ha         1 6FS       0.146500
     32 H72          8.3330    -2.4850     0.2230 h1         1 6FS       0.042367
     33 H71          8.1180    -2.3160    -1.5360 h1         1 6FS       0.042367
     34 H73          9.6020    -1.7350    -0.7610 h1         1 6FS       0.042367
     35 H82          2.9720    -4.0240    -0.0900 h1         1 6FS       0.045200
     36 H81          4.3500    -3.6380    -1.1350 h1         1 6FS       0.045200
     37 H83          4.5720    -3.7640     0.6270 h1         1 6FS       0.045200
     38 H10          4.7800     4.4500     0.3970 h1         1 6FS       0.045200
     39 H9M          6.1200     3.4760     1.0320 h1         1 6FS       0.045200
     40 H9L          5.8930     3.6460    -0.7250 h1         1 6FS       0.045200
     41 H11          1.4420    -1.2950     0.2710 h4         1 6FS       0.177000
     42 H9N         -0.3310     1.0650    -1.5960 h1         1 6FS       0.085700
     43 H12         -0.8310    -0.6010    -1.2590 h1         1 6FS       0.085700
     44 H13         -1.9020     2.9620    -1.0830 ha         1 6FS       0.120000
     45 H14         -4.2280     3.6660    -0.8020 ha         1 6FS       0.117000
     46 H9P         -6.2260     3.9380     0.4050 h1         1 6FS       0.028033
     47 H19         -6.4660     3.7580    -1.3470 h1         1 6FS       0.028033
     48 H9O         -7.7690     3.3340    -0.2230 h1         1 6FS       0.028033
     49 H17         -3.0390    -1.1040    -0.4080 ha         1 6FS       0.143000
     50 H9           2.4210     1.6090     0.4640 ha         1 6FS       0.150000
     51 H9Q         -4.6170    -2.0230     1.0680 h1         1 6FS       0.028200
     52 H20         -4.9970    -2.5360    -0.5640 h1         1 6FS       0.028200
     53 H15         -6.5160    -0.2570     0.2850 hn         1 6FS       0.463800
     54 O6          -6.2850     1.9740    -0.2880 os         1 6FS      -0.310900
     55 N1          -5.6480    -0.5970    -0.1000 nu         1 6FS      -0.714600
@<TRIPOS>BOND
     1     1     2 ar  
     2     1     5 ar  
     3     1    30 1   
     4     2     3 ar  
     5     2    22 1   
     6     3    24 1   
     7     3    26 ar  
     8     4     5 ar  
     9     4    26 ar  
    10     4    31 1   
    11     5    25 1   
    12     6    25 1   
    13     6    32 1   
    14     6    33 1   
    15     6    34 1   
    16     7    29 1   
    17     7    35 1   
    18     7    36 1   
    19     7    37 1   
    20     8    22 1   
    21     8    38 1   
    22     8    39 1   
    23     8    40 1   
    24     9    18 1   
    25     9    24 2   
    26     9    41 1   
    27    10    18 1   
    28    10    19 1   
    29    10    42 1   
    30    10    43 1   
    31    11    12 ar  
    32    11    19 ar  
    33    11    44 1   
    34    12    13 ar  
    35    12    45 1   
    36    13    14 ar  
    37    13    54 1   
    38    14    23 ar  
    39    14    55 1   
    40    15    46 1   
    41    15    47 1   
    42    15    48 1   
    43    15    54 1   
    44    16    17 1   
    45    16    20 1   
    46    16    27 1   
    47    18    21 2   
    48    18    28 2   
    49    19    23 ar  
    50    23    49 1   
    51    24    50 1   
    52    26    29 1   
    53    27    51 1   
    54    27    52 1   
    55    27    55 1   
    56    53    55 1   
@<TRIPOS>SUBSTRUCTURE
     1 6FS         1 TEMP              0 ****  ****    0 ROOT
