@<TRIPOS>MOLECULE
6FS
   55    56     1     0     0
SMALL
No Charge or Current Charge


@<TRIPOS>ATOM
      1 C1           6.3150     1.0050    -0.1190 ca         1 6FS      -0.322000
      2 C2           4.9630     1.2860     0.1490 ca         1 6FS       0.245600
      3 C3           4.0030     0.2490     0.1380 ca         1 6FS      -0.195800
      4 C5           5.7840    -1.3340    -0.4310 ca         1 6FS      -0.322000
      5 C6           6.7260    -0.2950    -0.4040 ca         1 6FS       0.236100
      6 C7           8.6070    -1.7940    -0.9630 c3         1 6FS       0.150900
      7 C8           3.8110    -3.4420    -0.5480 c3         1 6FS       0.148900
      8 C10          5.4450     3.6910     0.4920 c3         1 6FS       0.148900
      9 C11          1.5920    -0.2190     0.9280 ce         1 6FS      -0.423100
     10 C12         -0.8040     0.2660    -0.4650 c3         1 6FS      -0.203100
     11 C13         -2.5430     2.0870    -0.7950 ca         1 6FS      -0.147000
     12 C14         -3.8740     2.5340    -0.8440 ca         1 6FS      -0.159000
     13 C15         -4.9350     1.6300    -0.6030 ca         1 6FS       0.051100
     14 C16         -4.6420     0.2720    -0.3120 ca         1 6FS       0.341000
     15 C19         -6.6470     3.3920    -0.9290 c3         1 6FS       0.157900
     16 C21         -7.0070    -2.6710     0.8490 c          1 6FS       0.717000
     17 O7          -7.0220    -3.8900     0.9600 o          1 6FS      -0.727000
     18 S1          -0.0590     0.4080     1.1800 sy         1 6FS       1.008100
     19 C18         -2.2500     0.7440    -0.5060 ca         1 6FS      -0.069300
     20 O8          -8.0230    -1.9840     0.8730 o          1 6FS      -0.727000
     21 O4          -0.7650    -0.5230     2.0690 o          1 6FS      -0.524500
     22 O3           4.5440     2.5710     0.4470 os         1 6FS      -0.325600
     23 C17         -3.3020    -0.1590    -0.2700 ca         1 6FS      -0.175000
     24 C9           2.5820     0.5800     0.4310 cf         1 6FS       0.022800
     25 O1           8.0660    -0.4970    -0.6570 os         1 6FS      -0.341100
     26 C4           4.4250    -1.0690    -0.1650 ca         1 6FS       0.245600
     27 C20         -5.6180    -1.9590     0.6160 c3         1 6FS       0.040800
     28 O5           0.0340     1.8410     1.4940 o          1 6FS      -0.524500
     29 O2           3.4820    -2.0780    -0.2310 os         1 6FS      -0.325600
     30 H1           7.0670     1.7860    -0.1090 ha         1 6FS       0.128500
     31 H5           6.1070    -2.3410    -0.6640 ha         1 6FS       0.128500
     32 H72          8.4310    -2.4950    -0.1370 h1         1 6FS       0.042367
     33 H71          8.1520    -2.2020    -1.8750 h1         1 6FS       0.042367
     34 H73          9.6900    -1.7260    -1.1260 h1         1 6FS       0.042367
     35 H82          2.9060    -4.0620    -0.5400 h1         1 6FS       0.045200
     36 H81          4.2620    -3.5130    -1.5460 h1         1 6FS       0.045200
     37 H83          4.5120    -3.8560     0.1880 h1         1 6FS       0.045200
     38 H10          4.8980     4.6080     0.7450 h1         1 6FS       0.045200
     39 H9M          6.2210     3.5380     1.2540 h1         1 6FS       0.045200
     40 H9L          5.9300     3.8420    -0.4810 h1         1 6FS       0.045200
     41 H11          1.6960    -1.2630     1.2120 h4         1 6FS       0.227000
     42 H9N         -0.1860     0.8560    -1.1500 h1         1 6FS       0.085700
     43 H12         -0.7390    -0.7880    -0.7560 h1         1 6FS       0.085700
     44 H13         -1.7350     2.7920    -0.9820 ha         1 6FS       0.102000
     45 H14         -4.0610     3.5800    -1.0690 ha         1 6FS       0.099000
     46 H9P         -6.2310     4.0800    -0.1830 h1         1 6FS       0.028033
     47 H19         -6.2970     3.6940    -1.9240 h1         1 6FS       0.028033
     48 H9O         -7.7400     3.4890    -0.9090 h1         1 6FS       0.028033
     49 H17         -3.0750    -1.1980    -0.0520 ha         1 6FS       0.125000
     50 H9           2.3140     1.6170     0.2070 ha         1 6FS       0.200000
     51 H9Q         -5.1520    -1.8320     1.6030 h1         1 6FS       0.028200
     52 H20         -4.9840    -2.6430     0.0350 h1         1 6FS       0.028200
     53 H15         -6.6210    -0.2030    -0.1270 hn         1 6FS       0.519000
     54 O6          -6.2630     2.0350    -0.6430 os         1 6FS      -0.334100
     55 N1          -5.6900    -0.6310    -0.0750 nu         1 6FS      -0.908200
@<TRIPOS>BOND
     1     1     2 ar  
     2     1     5 ar  
     3     1    30 1   
     4     2     3 ar  
     5     2    22 1   
     6     3    24 1   
     7     3    26 ar  
     8     4     5 ar  
     9     4    26 ar  
    10     4    31 1   
    11     5    25 1   
    12     6    25 1   
    13     6    32 1   
    14     6    33 1   
    15     6    34 1   
    16     7    29 1   
    17     7    35 1   
    18     7    36 1   
    19     7    37 1   
    20     8    22 1   
    21     8    38 1   
    22     8    39 1   
    23     8    40 1   
    24     9    18 1   
    25     9    24 2   
    26     9    41 1   
    27    10    18 1   
    28    10    19 1   
    29    10    42 1   
    30    10    43 1   
    31    11    12 ar  
    32    11    19 ar  
    33    11    44 1   
    34    12    13 ar  
    35    12    45 1   
    36    13    14 ar  
    37    13    54 1   
    38    14    23 ar  
    39    14    55 1   
    40    15    46 1   
    41    15    47 1   
    42    15    48 1   
    43    15    54 1   
    44    16    17 1   
    45    16    20 1   
    46    16    27 1   
    47    18    21 2   
    48    18    28 2   
    49    19    23 ar  
    50    23    49 1   
    51    24    50 1   
    52    26    29 1   
    53    27    51 1   
    54    27    52 1   
    55    27    55 1   
    56    53    55 1   
@<TRIPOS>SUBSTRUCTURE
     1 6FS         1 TEMP              0 ****  ****    0 ROOT
