@<TRIPOS>MOLECULE
6FT
   43    45     1     0     0
SMALL
No Charge or Current Charge


@<TRIPOS>ATOM
      1 O01         -6.7660    -1.5110    -0.8860 o          1 6FT      -0.591100
      2 C02         -5.9140    -0.7280    -0.4710 c          1 6FT       0.557500
      3 C03         -5.2030    -0.8420     0.8040 cc         1 6FT      -0.299400
      4 C04         -5.4680    -1.9680     1.7370 c          1 6FT       0.728200
      5 O05         -4.8410    -2.0030     2.7860 o          1 6FT      -0.714000
      6 O06         -6.2860    -2.8320     1.4660 o          1 6FT      -0.714000
      7 C07         -4.2560     0.1000     1.1810 cd         1 6FT       0.017000
      8 N08         -3.9930     1.1820     0.3100 na         1 6FT      -0.494200
      9 C09         -2.9690     2.1650     0.7560 c3         1 6FT       0.266100
     10 C10         -1.5220     1.6780     0.6340 ca         1 6FT      -0.090300
     11 C11         -1.1240     0.7930    -0.3900 ca         1 6FT      -0.092500
     12 C12          0.2110     0.3650    -0.4840 ca         1 6FT      -0.094000
     13 C13          1.1930     0.8110     0.4350 cp         1 6FT      -0.062000
     14 C14          2.6170     0.3560     0.3320 cp         1 6FT       0.041000
     15 C15          2.9370    -0.9550    -0.1000 ca         1 6FT      -0.126500
     16 C16          4.2710    -1.3870    -0.1970 ca         1 6FT      -0.009500
     17 C17          5.3220    -0.5110     0.1360 ca         1 6FT      -0.279500
     18 S18          7.0260    -1.0620     0.0090 sy         1 6FT       1.126600
     19 O19          7.1070    -2.5190     0.1130 o          1 6FT      -0.551500
     20 N20          7.3680    -0.7260    -1.5540 n8         1 6FT      -1.003100
     21 O21          7.9010    -0.1610     0.7560 o          1 6FT      -0.551500
     22 C22          5.0260     0.7980     0.5670 ca         1 6FT      -0.009500
     23 C23          3.6890     1.2210     0.6620 ca         1 6FT      -0.126500
     24 C24          0.7800     1.7050     1.4540 ca         1 6FT      -0.094000
     25 C25         -0.5550     2.1330     1.5510 ca         1 6FT      -0.092500
     26 C26         -4.6090     1.3840    -0.9410 cc         1 6FT      -0.071000
     27 C27         -5.5430     0.4440    -1.3010 cd         1 6FT      -0.067100
     28 O28         -6.2130     0.5280    -2.4860 oh         1 6FT      -0.555100
     29 H2          -3.6950     0.0590     2.1140 h4         1 6FT       0.220000
     30 H3          -3.0740     3.0900     0.1750 h1         1 6FT       0.060200
     31 H4          -3.1730     2.4270     1.8030 h1         1 6FT       0.060200
     32 H5          -1.8470     0.4350    -1.1190 ha         1 6FT       0.125500
     33 H6           0.4880    -0.3080    -1.2920 ha         1 6FT       0.114000
     34 H7           2.1420    -1.6530    -0.3490 ha         1 6FT       0.124000
     35 H8           4.4810    -2.4030    -0.5300 ha         1 6FT       0.133500
     36 H9           6.6570    -0.0380    -1.7870 hn         1 6FT       0.471500
     37 H10          8.2170    -0.1750    -1.4490 hn         1 6FT       0.471500
     38 H11          5.8240     1.4920     0.8270 ha         1 6FT       0.133500
     39 H12          3.4850     2.2390     0.9840 ha         1 6FT       0.124000
     40 H13          1.4980     2.0630     2.1880 ha         1 6FT       0.114000
     41 H14         -0.8390     2.8190     2.3470 ha         1 6FT       0.125500
     42 H15         -4.3280     2.2440    -1.5430 h4         1 6FT       0.189000
     43 H16         -6.8180    -0.2540    -2.5080 ho         1 6FT       0.487000
@<TRIPOS>BOND
     1     1     2 2   
     2     2     3 1   
     3     2    27 1   
     4     3     4 1   
     5     3     7 2   
     6     4     5 1   
     7     4     6 1   
     8     7     8 1   
     9     7    29 1   
    10     8     9 1   
    11     8    26 1   
    12     9    10 1   
    13     9    30 1   
    14     9    31 1   
    15    10    11 ar  
    16    10    25 ar  
    17    11    12 ar  
    18    11    32 1   
    19    12    13 ar  
    20    12    33 1   
    21    13    14 1   
    22    13    24 ar  
    23    14    15 ar  
    24    14    23 ar  
    25    15    16 ar  
    26    15    34 1   
    27    16    17 ar  
    28    16    35 1   
    29    17    18 1   
    30    17    22 ar  
    31    18    19 2   
    32    18    20 1   
    33    18    21 2   
    34    20    36 1   
    35    20    37 1   
    36    22    23 ar  
    37    22    38 1   
    38    23    39 1   
    39    24    25 ar  
    40    24    40 1   
    41    25    41 1   
    42    26    27 2   
    43    26    42 1   
    44    27    28 1   
    45    28    43 1   
@<TRIPOS>SUBSTRUCTURE
     1 6FT         1 TEMP              0 ****  ****    0 ROOT
