@<TRIPOS>MOLECULE
6FT
   43    45     1     0     0
SMALL
abcg2


@<TRIPOS>ATOM
      1 O01         -6.2040    -0.2750    -2.2290 o          1 6FT      -0.591100
      2 C02         -5.5160    -0.0140    -1.2280 c          1 6FT       0.557500
      3 C03         -5.4150    -0.7430     0.0030 cc         1 6FT      -0.299400
      4 C04         -6.1520    -2.0430     0.2890 c          1 6FT       0.728200
      5 O05         -6.0840    -2.4650     1.4620 o          1 6FT      -0.714000
      6 O06         -6.7440    -2.5850    -0.6590 o          1 6FT      -0.714000
      7 C07         -4.6010    -0.2530     0.9950 cd         1 6FT       0.017000
      8 N08         -3.8780     0.8670     0.8840 na         1 6FT      -0.494200
      9 C09         -2.9700     1.2900     1.9480 c3         1 6FT       0.266100
     10 C10         -1.5300     1.0710     1.5710 ca         1 6FT      -0.090300
     11 C11         -1.0370    -0.2180     1.3870 ca         1 6FT      -0.092500
     12 C12          0.2830    -0.4220     1.0250 ca         1 6FT      -0.094000
     13 C13          1.1470     0.6580     0.8320 cp         1 6FT      -0.062000
     14 C14          2.5530     0.4400     0.4450 cp         1 6FT       0.041000
     15 C15          3.2800    -0.6300     0.9760 ca         1 6FT      -0.126500
     16 C16          4.6000    -0.8370     0.6240 ca         1 6FT      -0.009500
     17 C17          5.2050     0.0310    -0.2780 ca         1 6FT      -0.279500
     18 S18          6.9040    -0.2200    -0.6980 sy         1 6FT       1.126600
     19 O19          7.6670    -0.4900     0.5130 o          1 6FT      -0.551500
     20 N20          6.8220    -1.6560    -1.5080 n8         1 6FT      -1.003100
     21 O21          7.3260     0.8890    -1.5430 o          1 6FT      -0.551500
     22 C22          4.5070     1.0990    -0.8210 ca         1 6FT      -0.009500
     23 C23          3.1850     1.2960    -0.4550 ca         1 6FT      -0.126500
     24 C24          0.6490     1.9470     1.0170 ca         1 6FT      -0.094000
     25 C25         -0.6740     2.1480     1.3830 ca         1 6FT      -0.092500
     26 C26         -3.9220     1.6020    -0.2680 cc         1 6FT      -0.071000
     27 C27         -4.7080     1.2020    -1.2920 cd         1 6FT      -0.067100
     28 O28         -4.7940     1.9040    -2.4300 oh         1 6FT      -0.555100
     29 H2          -4.5220    -0.7810     1.9350 h4         1 6FT       0.220000
     30 H3          -3.1540     2.3430     2.1650 h1         1 6FT       0.060200
     31 H4          -3.2320     0.7270     2.8440 h1         1 6FT       0.060200
     32 H5          -1.6870    -1.0750     1.5220 ha         1 6FT       0.125500
     33 H6           0.6370    -1.4330     0.8700 ha         1 6FT       0.114000
     34 H7           2.8180    -1.2960     1.6930 ha         1 6FT       0.124000
     35 H8           5.1470    -1.6670     1.0510 ha         1 6FT       0.133500
     36 H9           6.4280    -1.5600    -2.4390 hn         1 6FT       0.471500
     37 H10          7.7310    -2.1080    -1.5570 hn         1 6FT       0.471500
     38 H11          4.9770     1.7700    -1.5260 ha         1 6FT       0.133500
     39 H12          2.6380     2.1190    -0.8960 ha         1 6FT       0.124000
     40 H13          1.2990     2.8040     0.8960 ha         1 6FT       0.114000
     41 H14         -1.0380     3.1580     1.5300 ha         1 6FT       0.125500
     42 H15         -3.3160     2.4970    -0.3050 h4         1 6FT       0.189000
     43 H16         -5.4210     1.4050    -2.9850 ho         1 6FT       0.487000
@<TRIPOS>BOND
     1     1     2 2   
     2     2     3 1   
     3     2    27 1   
     4     3     4 1   
     5     3     7 2   
     6     4     5 1   
     7     4     6 1   
     8     7     8 1   
     9     7    29 1   
    10     8     9 1   
    11     8    26 1   
    12     9    10 1   
    13     9    30 1   
    14     9    31 1   
    15    10    11 ar  
    16    10    25 ar  
    17    11    12 ar  
    18    11    32 1   
    19    12    13 ar  
    20    12    33 1   
    21    13    14 1   
    22    13    24 ar  
    23    14    15 ar  
    24    14    23 ar  
    25    15    16 ar  
    26    15    34 1   
    27    16    17 ar  
    28    16    35 1   
    29    17    18 1   
    30    17    22 ar  
    31    18    19 2   
    32    18    20 1   
    33    18    21 2   
    34    20    36 1   
    35    20    37 1   
    36    22    23 ar  
    37    22    38 1   
    38    23    39 1   
    39    24    25 ar  
    40    24    40 1   
    41    25    41 1   
    42    26    27 2   
    43    26    42 1   
    44    27    28 1   
    45    28    43 1   
@<TRIPOS>SUBSTRUCTURE
     1 6FT         1 TEMP              0 ****  ****    0 ROOT
