@<TRIPOS>MOLECULE
6FV
   35    38     1     0     0
SMALL
No Charge or Current Charge


@<TRIPOS>ATOM
      1 N1           4.1630     0.2090     0.0220 ns         1 6FV      -0.493500
      2 N3           0.0560     0.0460     0.0390 na         1 6FV       0.062200
      3 C4           2.2260    -1.1560     0.0100 cc         1 6FV      -0.257600
      4 C5           1.5630    -2.3620    -0.0050 cd         1 6FV       0.059000
      5 C6          -0.6270    -1.1900     0.0230 ca         1 6FV       0.046000
      6 C7           0.1010    -2.4010     0.0020 ca         1 6FV      -0.129000
      7 C8          -0.5700    -3.6380    -0.0140 ca         1 6FV      -0.042000
      8 C10         -2.7130    -2.4860     0.0140 ca         1 6FV       0.050000
      9 C13         -0.6500     1.2570     0.0610 ca         1 6FV      -0.061200
     10 C15         -1.7290     3.0520     1.3090 ca         1 6FV      -0.171000
     11 C17         -1.7380     3.0920    -1.1220 ca         1 6FV      -0.171000
     12 C1           3.6950    -1.0680     0.0050 c          1 6FV       0.594600
     13 C2           3.4450     1.3640     0.0430 c          1 6FV       0.730400
     14 N2           2.0460     1.2460     0.0470 nd         1 6FV      -0.440400
     15 C3           1.4680     0.0580     0.0320 cc         1 6FV       0.160000
     16 C9          -2.0420    -1.2480     0.0290 ca         1 6FV      -0.120000
     17 C11         -1.9730    -3.6810    -0.0080 ca         1 6FV      -0.112000
     18 C12         -4.1510    -2.5280     0.0200 cg         1 6FV       0.308000
     19 N4          -5.3190    -2.5530     0.0250 n1         1 6FV      -0.423000
     20 O1           3.9900     2.4530     0.0560 o          1 6FV      -0.505000
     21 O2           4.4510    -2.0240    -0.0130 o          1 6FV      -0.532000
     22 C14         -1.0090     1.8440     1.2900 ca         1 6FV      -0.043500
     23 C16         -2.0920     3.6740     0.1060 ca         1 6FV       0.161100
     24 C18         -1.0180     1.8840    -1.1460 ca         1 6FV      -0.043500
     25 O3          -2.7900     4.8440     0.1380 oh         1 6FV      -0.524100
     26 H1           5.1640     0.3170     0.0180 hn         1 6FV       0.339500
     27 H2           2.1280    -3.2900    -0.0210 ha         1 6FV       0.152000
     28 H3          -0.0060    -4.5690    -0.0310 ha         1 6FV       0.132000
     29 H4          -2.0050     3.5040     2.2580 ha         1 6FV       0.130000
     30 H5          -2.0160     3.5670    -2.0600 ha         1 6FV       0.130000
     31 H7          -2.6340    -0.3360     0.0460 ha         1 6FV       0.150000
     32 H8          -2.4820    -4.6430    -0.0200 ha         1 6FV       0.139000
     33 H9          -0.7300     1.3640     2.2270 ha         1 6FV       0.128000
     34 H10         -0.7450     1.4340    -2.0990 ha         1 6FV       0.128000
     35 H11         -2.9540     5.1340    -0.7850 ho         1 6FV       0.471000
@<TRIPOS>BOND
     1     1    12 1   
     2     1    13 1   
     3     1    26 1   
     4     2     5 1   
     5     2     9 1   
     6     2    15 1   
     7     3     4 2   
     8     3    12 1   
     9     3    15 1   
    10     4     6 1   
    11     4    27 1   
    12     5     6 ar  
    13     5    16 ar  
    14     6     7 ar  
    15     7    17 ar  
    16     7    28 1   
    17     8    16 ar  
    18     8    17 ar  
    19     8    18 1   
    20     9    22 ar  
    21     9    24 ar  
    22    10    22 ar  
    23    10    23 ar  
    24    10    29 1   
    25    11    23 ar  
    26    11    24 ar  
    27    11    30 1   
    28    12    21 2   
    29    13    14 1   
    30    13    20 2   
    31    14    15 2   
    32    16    31 1   
    33    17    32 1   
    34    18    19 3   
    35    22    33 1   
    36    23    25 1   
    37    24    34 1   
    38    25    35 1   
@<TRIPOS>SUBSTRUCTURE
     1 6FV         1 TEMP              0 ****  ****    0 ROOT
