@<TRIPOS>MOLECULE
6FV
   35    38     1     0     0
SMALL
bcc


@<TRIPOS>ATOM
      1 N1           4.1220     0.1960     0.0270 ns         1 6FV      -0.627500
      2 N3           0.0880     0.0210     0.0330 na         1 6FV      -0.039200
      3 C4           2.1750    -1.1510     0.0070 cc         1 6FV      -0.257600
      4 C5           1.5320    -2.3400    -0.0130 cd         1 6FV       0.041000
      5 C6          -0.6000    -1.1760     0.0190 ca         1 6FV       0.096700
      6 C7           0.1140    -2.3890    -0.0050 ca         1 6FV      -0.129000
      7 C8          -0.5740    -3.6100    -0.0160 ca         1 6FV      -0.060000
      8 C10         -2.6430    -2.4290     0.0240 ca         1 6FV       0.050000
      9 C13         -0.6470     1.2500     0.0500 ca         1 6FV      -0.061200
     10 C15         -1.7340     2.9960     1.2820 ca         1 6FV      -0.189000
     11 C17         -1.7190     3.0390    -1.1290 ca         1 6FV      -0.189000
     12 C1           3.6430    -1.0790     0.0040 c          1 6FV       0.737100
     13 C2           3.3620     1.3670     0.0520 c          1 6FV       0.872900
     14 N2           2.0050     1.2660     0.0530 nd         1 6FV      -0.440400
     15 C3           1.4520     0.0890     0.0310 cc         1 6FV       0.209700
     16 C9          -1.9960    -1.2060     0.0320 ca         1 6FV      -0.138000
     17 C11         -1.9450    -3.6450     0.0010 ca         1 6FV      -0.130000
     18 C12         -4.0720    -2.4470     0.0400 cg         1 6FV       0.218800
     19 N4          -5.2230    -2.4720     0.0450 n1         1 6FV      -0.333800
     20 O1           3.9360     2.4370     0.0710 o          1 6FV      -0.580500
     21 O2           4.3650    -2.0540    -0.0180 o          1 6FV      -0.607500
     22 C14         -1.0130     1.8160     1.2610 ca         1 6FV      -0.061500
     23 C16         -2.0900     3.6160     0.0840 ca         1 6FV       0.161100
     24 C18         -0.9970     1.8580    -1.1440 ca         1 6FV      -0.061500
     25 O3          -2.7860     4.7620     0.1600 oh         1 6FV      -0.485100
     26 H1           5.1280     0.3110     0.0250 hn         1 6FV       0.339500
     27 H2           2.0960    -3.2650    -0.0330 ha         1 6FV       0.170000
     28 H3          -0.0060    -4.5300    -0.0350 ha         1 6FV       0.150000
     29 H4          -2.0190     3.4420     2.2250 ha         1 6FV       0.148000
     30 H5          -1.9880     3.5110    -2.0670 ha         1 6FV       0.148000
     31 H7          -2.5780    -0.2960     0.0490 ha         1 6FV       0.168000
     32 H8          -2.4790    -4.5840    -0.0030 ha         1 6FV       0.157000
     33 H9          -0.7350     1.3390     2.1920 ha         1 6FV       0.146000
     34 H10         -0.7110     1.4130    -2.0880 ha         1 6FV       0.146000
     35 H11         -2.9620     5.1120    -0.7200 ho         1 6FV       0.432000
@<TRIPOS>BOND
     1     1    12 1   
     2     1    13 1   
     3     1    26 1   
     4     2     5 1   
     5     2     9 1   
     6     2    15 1   
     7     3     4 2   
     8     3    12 1   
     9     3    15 1   
    10     4     6 1   
    11     4    27 1   
    12     5     6 ar  
    13     5    16 ar  
    14     6     7 ar  
    15     7    17 ar  
    16     7    28 1   
    17     8    16 ar  
    18     8    17 ar  
    19     8    18 1   
    20     9    22 ar  
    21     9    24 ar  
    22    10    22 ar  
    23    10    23 ar  
    24    10    29 1   
    25    11    23 ar  
    26    11    24 ar  
    27    11    30 1   
    28    12    21 2   
    29    13    14 1   
    30    13    20 2   
    31    14    15 2   
    32    16    31 1   
    33    17    32 1   
    34    18    19 3   
    35    22    33 1   
    36    23    25 1   
    37    24    34 1   
    38    25    35 1   
@<TRIPOS>SUBSTRUCTURE
     1 6FV         1 TEMP              0 ****  ****    0 ROOT
