@<TRIPOS>MOLECULE
6FX
   30    32     1     0     0
SMALL
abcg2


@<TRIPOS>ATOM
      1 C10          4.4510    -0.5730     0.0130 c          1 6FX       0.599600
      2 C11          4.5700     1.8740     0.0430 cc         1 6FX      -0.018400
      3 O3          -3.7000     1.9810    -0.0090 o          1 6FX      -0.484000
      4 O4          -5.1840     0.3140    -0.0050 os         1 6FX      -0.438100
      5 C14         -6.2670     1.2470    -0.0120 c3         1 6FX       0.153900
      6 C5          -2.9200    -0.2600     0.0050 ca         1 6FX      -0.197600
      7 C1          -3.2250    -1.6170     0.0100 ca         1 6FX       0.393900
      8 C4          -1.5850     0.1200     0.0080 ca         1 6FX      -0.007000
      9 C3          -0.5990    -0.8590     0.0170 ca         1 6FX      -0.182500
     10 C2          -1.0210    -2.1920     0.0230 ca         1 6FX       0.378900
     11 N1          -2.2900    -2.5590     0.0190 nb         1 6FX      -0.673000
     12 C6           0.8140    -0.5370     0.0190 cd         1 6FX       0.173500
     13 O1           1.1430     0.7890     0.0350 os         1 6FX      -0.227000
     14 C9           2.4760     0.8750     0.0340 cd         1 6FX       0.282800
     15 C12          3.2260     2.0640     0.0480 cd         1 6FX      -0.379800
     16 N2           5.1290     0.6340     0.0280 ns         1 6FX      -0.382100
     17 O2           5.0450    -1.6430    -0.0030 o          1 6FX      -0.542000
     18 C8           3.0280    -0.3880     0.0190 cc         1 6FX      -0.261600
     19 C7           1.9360    -1.3010     0.0090 cc         1 6FX      -0.090000
     20 H1           5.2700     2.6960     0.0520 h4         1 6FX       0.205000
     21 H2          -6.2520     1.8750     0.8770 h1         1 6FX       0.051367
     22 H3          -6.2410     1.8750    -0.9010 h1         1 6FX       0.051367
     23 H4          -7.1730     0.6490    -0.0180 h1         1 6FX       0.051367
     24 H5          -4.2510    -1.9620     0.0070 h4         1 6FX       0.040100
     25 H6          -1.3290     1.1720     0.0040 ha         1 6FX       0.154000
     26 H7          -0.2920    -2.9940     0.0320 h4         1 6FX       0.027100
     27 H8           2.7900     3.0500     0.0600 ha         1 6FX       0.219000
     28 H10          1.9870    -2.3780    -0.0050 ha         1 6FX       0.158000
     29 H9           6.1390     0.5790     0.0230 hn         1 6FX       0.329500
     30 C13         -3.9590     0.8030    -0.0040 c          1 6FX       0.611700
@<TRIPOS>BOND
     1     1    16 1   
     2     1    17 2   
     3     1    18 1   
     4     2    15 2   
     5     2    16 1   
     6     2    20 1   
     7     3    30 2   
     8     4     5 1   
     9     4    30 1   
    10     5    21 1   
    11     5    22 1   
    12     5    23 1   
    13     6     7 ar  
    14     6     8 ar  
    15     6    30 1   
    16     7    11 ar  
    17     7    24 1   
    18     8     9 ar  
    19     8    25 1   
    20     9    10 ar  
    21     9    12 1   
    22    10    11 ar  
    23    10    26 1   
    24    12    13 1   
    25    12    19 2   
    26    13    14 1   
    27    14    15 1   
    28    14    18 2   
    29    15    27 1   
    30    16    29 1   
    31    18    19 1   
    32    19    28 1   
@<TRIPOS>SUBSTRUCTURE
     1 6FX         1 TEMP              0 ****  ****    0 ROOT
