@<TRIPOS>MOLECULE
6FX
   30    32     1     0     0
SMALL
No Charge or Current Charge


@<TRIPOS>ATOM
      1 C10          4.4930    -0.6120     0.0300 c          1 6FX       0.599600
      2 C11          4.7380     1.8480     0.0370 cc         1 6FX      -0.018400
      3 O3          -3.8450     2.0090     0.0060 o          1 6FX      -0.484000
      4 O4          -5.3080     0.2500    -0.0040 os         1 6FX      -0.438100
      5 C14         -6.4420     1.1370    -0.0060 c3         1 6FX       0.153900
      6 C5          -2.9470    -0.2080     0.0040 ca         1 6FX      -0.197600
      7 C1          -3.2330    -1.5840    -0.0010 ca         1 6FX       0.393900
      8 C4          -1.5970     0.1990     0.0100 ca         1 6FX      -0.007000
      9 C3          -0.5880    -0.7860     0.0110 ca         1 6FX      -0.182500
     10 C2          -0.9800    -2.1380     0.0060 ca         1 6FX       0.378900
     11 N1          -2.2720    -2.5370     0.0000 nb         1 6FX      -0.673000
     12 C6           0.8380    -0.4230     0.0170 cd         1 6FX       0.173500
     13 O1           1.1630     0.9210     0.0220 os         1 6FX      -0.227000
     14 C9           2.5320     0.9010     0.0260 cd         1 6FX       0.282800
     15 C12          3.3690     2.0590     0.0320 cd         1 6FX      -0.379800
     16 N2           5.2410     0.5450     0.0350 ns         1 6FX      -0.382100
     17 O2           4.9980    -1.7230     0.0290 o          1 6FX      -0.542000
     18 C8           3.0530    -0.3460     0.0250 cc         1 6FX      -0.261600
     19 C7           1.9540    -1.2290     0.0190 cc         1 6FX      -0.090000
     20 H1           5.5080     2.6180     0.0410 h4         1 6FX       0.205000
     21 H2          -6.4420     1.7770     0.8870 h1         1 6FX       0.051367
     22 H3          -6.4350     1.7810    -0.8950 h1         1 6FX       0.051367
     23 H4          -7.3760     0.5620    -0.0110 h1         1 6FX       0.051367
     24 H5          -4.2570    -1.9550    -0.0060 h4         1 6FX       0.040100
     25 H6          -1.3430     1.2580     0.0140 ha         1 6FX       0.154000
     26 H7          -0.2400    -2.9370     0.0070 h4         1 6FX       0.027100
     27 H8           2.9420     3.0570     0.0330 ha         1 6FX       0.219000
     28 H10          2.0010    -2.3140     0.0170 ha         1 6FX       0.158000
     29 H9           6.2440     0.3990     0.0390 hn         1 6FX       0.329500
     30 C13         -4.0530     0.8030     0.0020 c          1 6FX       0.611700
@<TRIPOS>BOND
     1     1    16 1   
     2     1    17 2   
     3     1    18 1   
     4     2    15 2   
     5     2    16 1   
     6     2    20 1   
     7     3    30 2   
     8     4     5 1   
     9     4    30 1   
    10     5    21 1   
    11     5    22 1   
    12     5    23 1   
    13     6     7 ar  
    14     6     8 ar  
    15     6    30 1   
    16     7    11 ar  
    17     7    24 1   
    18     8     9 ar  
    19     8    25 1   
    20     9    10 ar  
    21     9    12 1   
    22    10    11 ar  
    23    10    26 1   
    24    12    13 1   
    25    12    19 2   
    26    13    14 1   
    27    14    15 1   
    28    14    18 2   
    29    15    27 1   
    30    16    29 1   
    31    18    19 1   
    32    19    28 1   
@<TRIPOS>SUBSTRUCTURE
     1 6FX         1 TEMP              0 ****  ****    0 ROOT
