@<TRIPOS>MOLECULE
6FZ
   21    22     1     0     0
SMALL
No Charge or Current Charge


@<TRIPOS>ATOM
      1 C1           3.3950     0.6570    -0.2300 ca         1 6FZ      -0.134500
      2 C2           2.1770     1.3510    -0.3690 ca         1 6FZ      -0.115000
      3 C3           0.9740     0.6580    -0.1590 ca         1 6FZ      -0.076800
      4 C4           0.9750    -0.6830     0.1770 ca         1 6FZ      -0.076800
      5 C5           2.1800    -1.3910     0.3170 ca         1 6FZ      -0.115000
      6 C6          -0.4190    -1.2300     0.3440 c5         1 6FZ      -0.017100
      7 C7          -1.2220     0.1180     0.5400 c5         1 6FZ      -0.188700
      8 C8          -0.4210     1.2160    -0.2690 c5         1 6FZ      -0.017100
      9 C9          -2.6840    -0.0100     0.0340 c          1 6FZ       0.723000
     10 O           -3.5930     0.1880     0.8270 o          1 6FZ      -0.735500
     11 C            3.3960    -0.7110     0.1130 ca         1 6FZ      -0.134500
     12 H1           4.3370     1.1780    -0.3880 ha         1 6FZ       0.089000
     13 H2           2.1690     2.4050    -0.6360 ha         1 6FZ       0.100000
     14 H3           2.1730    -2.4460     0.5790 ha         1 6FZ       0.100000
     15 H4          -0.7320    -1.7830    -0.5490 hc         1 6FZ       0.053450
     16 H5          -0.5200    -1.9010     1.2040 hc         1 6FZ       0.053450
     17 H6          -1.2340     0.3850     1.6040 hc         1 6FZ       0.030700
     18 H7          -0.5240     2.2140     0.1730 hc         1 6FZ       0.053450
     19 H8          -0.7360     1.2830    -1.3170 hc         1 6FZ       0.053450
     20 H            4.3390    -1.2430     0.2180 ha         1 6FZ       0.089000
     21 O1          -2.9000    -0.3020    -1.1330 o          1 6FZ      -0.735500
@<TRIPOS>BOND
     1     1     2 ar  
     2     1    11 ar  
     3     1    12 1   
     4     2     3 ar  
     5     2    13 1   
     6     3     4 ar  
     7     3     8 1   
     8     4     5 ar  
     9     4     6 1   
    10     5    11 ar  
    11     5    14 1   
    12     6     7 1   
    13     6    15 1   
    14     6    16 1   
    15     7     8 1   
    16     7     9 1   
    17     7    17 1   
    18     8    18 1   
    19     8    19 1   
    20     9    10 1   
    21     9    21 1   
    22    11    20 1   
@<TRIPOS>SUBSTRUCTURE
     1 6FZ         1 TEMP              0 ****  ****    0 ROOT
