@<TRIPOS>MOLECULE
6FZ
   21    22     1     0     0
SMALL
abcg2


@<TRIPOS>ATOM
      1 C1           3.3780     0.7190    -0.1050 ca         1 6FZ      -0.134500
      2 C2           2.1680     1.4060    -0.1500 ca         1 6FZ      -0.115000
      3 C3           0.9810     0.6940    -0.0650 ca         1 6FZ      -0.076800
      4 C4           1.0000    -0.6960     0.0610 ca         1 6FZ      -0.076800
      5 C5           2.2040    -1.3810     0.1020 ca         1 6FZ      -0.115000
      6 C6          -0.4030    -1.2320     0.1220 c5         1 6FZ      -0.017100
      7 C7          -1.2340     0.0120     0.4780 c5         1 6FZ      -0.188700
      8 C8          -0.4350     1.1950    -0.0970 c5         1 6FZ      -0.017100
      9 C9          -2.7120    -0.0420     0.0730 c          1 6FZ       0.723000
     10 O           -3.2800     1.0520    -0.1220 o          1 6FZ      -0.735500
     11 C            3.3970    -0.6660     0.0210 ca         1 6FZ      -0.134500
     12 H1           4.3110     1.2670    -0.1620 ha         1 6FZ       0.089000
     13 H2           2.1600     2.4860    -0.2420 ha         1 6FZ       0.100000
     14 H3           2.2240    -2.4590     0.2020 ha         1 6FZ       0.100000
     15 H4          -0.6970    -1.6320    -0.8550 hc         1 6FZ       0.053450
     16 H5          -0.5180    -2.0440     0.8410 hc         1 6FZ       0.053450
     17 H6          -1.2100     0.1120     1.5720 hc         1 6FZ       0.030700
     18 H7          -0.5750     2.1190     0.4660 hc         1 6FZ       0.053450
     19 H8          -0.7370     1.4060    -1.1280 hc         1 6FZ       0.053450
     20 H            4.3430    -1.1900     0.0630 ha         1 6FZ       0.089000
     21 O1          -3.2370    -1.1720     0.0060 o          1 6FZ      -0.735500
@<TRIPOS>BOND
     1     1     2 ar  
     2     1    11 ar  
     3     1    12 1   
     4     2     3 ar  
     5     2    13 1   
     6     3     4 ar  
     7     3     8 1   
     8     4     5 ar  
     9     4     6 1   
    10     5    11 ar  
    11     5    14 1   
    12     6     7 1   
    13     6    15 1   
    14     6    16 1   
    15     7     8 1   
    16     7     9 1   
    17     7    17 1   
    18     8    18 1   
    19     8    19 1   
    20     9    10 1   
    21     9    21 1   
    22    11    20 1   
@<TRIPOS>SUBSTRUCTURE
     1 6FZ         1 TEMP              0 ****  ****    0 ROOT
