@<TRIPOS>MOLECULE
6G1
   52    55     1     0     0
SMALL
abcg2


@<TRIPOS>ATOM
      1 C10          1.8120     0.5000     0.5120 c6         1 6G1       0.091000
      2 N12         -0.2370    -0.6110    -0.1830 n3         1 6G1      -0.795500
      3 C13          0.3050    -0.8490    -1.5220 c6         1 6G1       0.201300
      4 C20         -4.8700    -1.0480     0.4770 ca         1 6G1      -0.157000
      5 C21         -6.2310    -1.0340     0.6020 ca         1 6G1       0.347900
      6 C24         -4.9980     1.2900    -0.0850 ca         1 6G1      -0.119000
      7 C26         -3.0610     2.6330    -0.5670 ca         1 6G1      -0.145000
      8 O01          4.0320    -0.3400    -2.2080 o          1 6G1      -0.598100
      9 C03          4.6850    -0.0310     0.0690 c6         1 6G1      -0.134700
     10 C04          5.9170    -0.8770    -0.2460 c6         1 6G1      -0.066900
     11 C05          6.9340    -0.8030     0.8880 c6         1 6G1      -0.074900
     12 C06          7.3430     0.6370     1.1750 c6         1 6G1      -0.076400
     13 C07          6.1240     1.5050     1.4670 c6         1 6G1      -0.074900
     14 C08          5.0920     1.4250     0.3470 c6         1 6G1      -0.066900
     15 N09          2.3800     0.2070    -0.7860 n          1 6G1      -0.415800
     16 C11          0.7580    -0.5300     0.8850 c6         1 6G1       0.201300
     17 C14          1.3710     0.1890    -1.8260 c6         1 6G1       0.091000
     18 S15         -1.7490    -1.1400     0.1620 sy         1 6G1       1.175600
     19 O16         -2.1630    -2.1090    -0.8430 o          1 6G1      -0.537500
     20 O17         -1.8050    -1.5190     1.5660 o          1 6G1      -0.537500
     21 C18         -2.7900     0.2890    -0.0500 ca         1 6G1      -0.256500
     22 C19         -4.1960     0.1410     0.1170 ca         1 6G1       0.071000
     23 N22         -7.0010     0.0560     0.4000 nb         1 6G1      -0.663000
     24 C23         -6.3990     1.1650     0.0720 ca         1 6G1       0.369900
     25 C25         -4.4140     2.5270    -0.4310 ca         1 6G1      -0.025000
     26 C27         -2.2440     1.5020    -0.3730 ca         1 6G1       0.011000
     27 H1           2.5670     0.5120     1.2910 h1         1 6G1       0.062200
     28 H2           1.3590     1.4960     0.4870 h1         1 6G1       0.062200
     29 H3           0.7330    -1.8540    -1.5870 h1         1 6G1       0.066700
     30 H4          -0.4830    -0.7670    -2.2670 h1         1 6G1       0.066700
     31 H5          -4.3480    -1.9740     0.6650 ha         1 6G1       0.140000
     32 H6          -6.7550    -1.9400     0.8800 h4         1 6G1       0.025100
     33 H7          -2.6020     3.5760    -0.8290 ha         1 6G1       0.121000
     34 H8           4.2400    -0.4400     0.9820 hc         1 6G1       0.055700
     35 H9           5.6230    -1.9150    -0.4190 hc         1 6G1       0.051200
     36 H10          6.3800    -0.5240    -1.1720 hc         1 6G1       0.051200
     37 H11          6.5070    -1.2470     1.7940 hc         1 6G1       0.039950
     38 H12          7.8120    -1.4030     0.6330 hc         1 6G1       0.039950
     39 H13          8.0430     0.6750     2.0130 hc         1 6G1       0.042700
     40 H14          7.8750     1.0420     0.3070 hc         1 6G1       0.042700
     41 H15          5.6630     1.1780     2.4050 hc         1 6G1       0.039950
     42 H16          6.4250     2.5440     1.6160 hc         1 6G1       0.039950
     43 H17          5.5100     1.8550    -0.5700 hc         1 6G1       0.051200
     44 H18          4.2210     2.0330     0.6060 hc         1 6G1       0.051200
     45 H19          1.2320    -1.5040     1.0450 h1         1 6G1       0.066700
     46 H20          0.2880    -0.2220     1.8150 h1         1 6G1       0.066700
     47 H21          1.8270    -0.0400    -2.7850 h1         1 6G1       0.062200
     48 H22          0.9140     1.1810    -1.9010 h1         1 6G1       0.062200
     49 H23         -7.0190     2.0420    -0.0870 h4         1 6G1       0.019100
     50 H24         -5.0550     3.3870    -0.5850 ha         1 6G1       0.121000
     51 H25         -1.1740     1.6050    -0.4830 ha         1 6G1       0.125000
     52 C02          3.6750    -0.0820    -1.0660 c          1 6G1       0.612100
@<TRIPOS>BOND
     1     1    15 1   
     2     1    16 1   
     3     1    27 1   
     4     1    28 1   
     5     2     3 1   
     6     2    16 1   
     7     2    18 1   
     8     3    17 1   
     9     3    29 1   
    10     3    30 1   
    11     4     5 ar  
    12     4    22 ar  
    13     4    31 1   
    14     5    23 ar  
    15     5    32 1   
    16     6    22 ar  
    17     6    24 ar  
    18     6    25 ar  
    19     7    25 ar  
    20     7    26 ar  
    21     7    33 1   
    22     8    52 2   
    23     9    10 1   
    24     9    14 1   
    25     9    34 1   
    26     9    52 1   
    27    10    11 1   
    28    10    35 1   
    29    10    36 1   
    30    11    12 1   
    31    11    37 1   
    32    11    38 1   
    33    12    13 1   
    34    12    39 1   
    35    12    40 1   
    36    13    14 1   
    37    13    41 1   
    38    13    42 1   
    39    14    43 1   
    40    14    44 1   
    41    15    17 1   
    42    15    52 1   
    43    16    45 1   
    44    16    46 1   
    45    17    47 1   
    46    17    48 1   
    47    18    19 2   
    48    18    20 2   
    49    18    21 1   
    50    21    22 ar  
    51    21    26 ar  
    52    23    24 ar  
    53    24    49 1   
    54    25    50 1   
    55    26    51 1   
@<TRIPOS>SUBSTRUCTURE
     1 6G1         1 TEMP              0 ****  ****    0 ROOT
