@<TRIPOS>MOLECULE
6G1
   52    55     1     0     0
SMALL
No Charge or Current Charge


@<TRIPOS>ATOM
      1 C10          2.0800     0.1990     1.0820 c6         1 6G1       0.091000
      2 N12         -0.4090     0.0610     0.7290 n3         1 6G1      -0.795500
      3 C13         -0.1760    -0.2510    -0.7030 c6         1 6G1       0.201300
      4 C20         -4.9410    -1.1240     0.2690 ca         1 6G1      -0.157000
      5 C21         -6.2150    -1.4760    -0.2040 ca         1 6G1       0.347900
      6 C24         -5.1780     0.9720    -0.8880 ca         1 6G1      -0.119000
      7 C26         -3.4870     2.7090    -0.7990 ca         1 6G1      -0.145000
      8 O01          3.7200     0.9790    -2.0190 o          1 6G1      -0.598100
      9 C03          4.9020     0.0670    -0.1290 c6         1 6G1      -0.134700
     10 C04          6.0360    -0.5380    -1.0060 c6         1 6G1      -0.066900
     11 C05          7.2490    -0.9580    -0.1400 c6         1 6G1      -0.074900
     12 C06          7.7560     0.2210     0.7300 c6         1 6G1      -0.076400
     13 C07          6.6250     0.7870     1.6250 c6         1 6G1      -0.074900
     14 C08          5.4010     1.2250     0.7810 c6         1 6G1      -0.066900
     15 N09          2.3460     0.1230    -0.3930 n          1 6G1      -0.415800
     16 C11          0.7340    -0.4270     1.5360 c6         1 6G1       0.201300
     17 C14          1.1340     0.3920    -1.2280 c6         1 6G1       0.091000
     18 S15         -1.9330    -0.4220     1.3150 sy         1 6G1       1.175600
     19 O16         -2.0590    -1.8520     1.0170 o          1 6G1      -0.537500
     20 O17         -2.0040     0.0830     2.6900 o          1 6G1      -0.537500
     21 C18         -3.0910     0.5720     0.3320 ca         1 6G1      -0.256500
     22 C19         -4.3780     0.1240    -0.0850 ca         1 6G1       0.071000
     23 N22         -6.9620    -0.6730    -0.9900 nb         1 6G1      -0.663000
     24 C23         -6.4450     0.5310    -1.3180 ca         1 6G1       0.369900
     25 C25         -4.7310     2.2540    -1.2510 ca         1 6G1      -0.025000
     26 C27         -2.6770     1.8810    -0.0090 ca         1 6G1       0.011000
     27 H1           2.8770    -0.2900     1.6540 h1         1 6G1       0.062200
     28 H2           2.0800     1.2590     1.3730 h1         1 6G1       0.062200
     29 H3          -0.1140    -1.3390    -0.8530 h1         1 6G1       0.066700
     30 H4          -1.0040     0.1080    -1.3310 h1         1 6G1       0.066700
     31 H5          -4.4430    -1.8320     0.9150 ha         1 6G1       0.140000
     32 H6          -6.6560    -2.4360     0.0630 h4         1 6G1       0.025100
     33 H7          -3.1450     3.7080    -1.0630 ha         1 6G1       0.121000
     34 H8           4.5990    -0.7230     0.5680 hc         1 6G1       0.055700
     35 H9           5.6580    -1.4070    -1.5620 hc         1 6G1       0.051200
     36 H10          6.3600     0.1970    -1.7560 hc         1 6G1       0.051200
     37 H11          6.9680    -1.8000     0.5070 hc         1 6G1       0.039950
     38 H12          8.0610    -1.3190    -0.7860 hc         1 6G1       0.039950
     39 H13          8.5930    -0.1140     1.3570 hc         1 6G1       0.042700
     40 H14          8.1490     1.0170     0.0830 hc         1 6G1       0.042700
     41 H15          6.3160     0.0260     2.3560 hc         1 6G1       0.039950
     42 H16          7.0010     1.6410     2.2050 hc         1 6G1       0.039950
     43 H17          5.6750     2.0890     0.1590 hc         1 6G1       0.051200
     44 H18          4.5980     1.5670     1.4480 hc         1 6G1       0.051200
     45 H19          0.8130    -1.5220     1.4640 h1         1 6G1       0.066700
     46 H20          0.5930    -0.1880     2.6000 h1         1 6G1       0.066700
     47 H21          1.3080     0.0360    -2.2530 h1         1 6G1       0.062200
     48 H22          0.9870     1.4800    -1.2840 h1         1 6G1       0.062200
     49 H23         -7.0740     1.1670    -1.9410 h4         1 6G1       0.019100
     50 H24         -5.3520     2.9020    -1.8650 ha         1 6G1       0.121000
     51 H25         -1.7150     2.2630     0.3280 ha         1 6G1       0.125000
     52 C02          3.6220     0.4400    -0.9230 c          1 6G1       0.612100
@<TRIPOS>BOND
     1     1    15 1   
     2     1    16 1   
     3     1    27 1   
     4     1    28 1   
     5     2     3 1   
     6     2    16 1   
     7     2    18 1   
     8     3    17 1   
     9     3    29 1   
    10     3    30 1   
    11     4     5 ar  
    12     4    22 ar  
    13     4    31 1   
    14     5    23 ar  
    15     5    32 1   
    16     6    22 ar  
    17     6    24 ar  
    18     6    25 ar  
    19     7    25 ar  
    20     7    26 ar  
    21     7    33 1   
    22     8    52 2   
    23     9    10 1   
    24     9    14 1   
    25     9    34 1   
    26     9    52 1   
    27    10    11 1   
    28    10    35 1   
    29    10    36 1   
    30    11    12 1   
    31    11    37 1   
    32    11    38 1   
    33    12    13 1   
    34    12    39 1   
    35    12    40 1   
    36    13    14 1   
    37    13    41 1   
    38    13    42 1   
    39    14    43 1   
    40    14    44 1   
    41    15    17 1   
    42    15    52 1   
    43    16    45 1   
    44    16    46 1   
    45    17    47 1   
    46    17    48 1   
    47    18    19 2   
    48    18    20 2   
    49    18    21 1   
    50    21    22 ar  
    51    21    26 ar  
    52    23    24 ar  
    53    24    49 1   
    54    25    50 1   
    55    26    51 1   
@<TRIPOS>SUBSTRUCTURE
     1 6G1         1 TEMP              0 ****  ****    0 ROOT
