@<TRIPOS>MOLECULE
6G2
   47    50     1     0     0
SMALL
bcc


@<TRIPOS>ATOM
      1 C1           2.3650     2.4780     0.3720 ca         1 6G2       0.665200
      2 C2           0.0730     2.5110     0.4260 ca         1 6G2       0.436200
      3 C3          -0.0410     1.1430     0.2660 ca         1 6G2      -0.150300
      4 C11         -5.8610    -0.5340     1.1560 c6         1 6G2      -0.108400
      5 C12          1.1580     0.4120     0.1530 ca         1 6G2      -0.135000
      6 C13          2.3620     1.0650     0.2130 ca         1 6G2      -0.039200
      7 C14          3.6410    -0.9140    -0.0640 c3         1 6G2       0.184700
      8 C15          5.0910    -1.2770    -0.1600 ca         1 6G2      -0.059300
      9 C16          5.7180    -1.4130    -1.3910 ca         1 6G2      -0.224300
     10 N2           1.2360     3.1560     0.4690 nb         1 6G2      -0.729000
     11 N1           3.5420     3.1520     0.4680 nv         1 6G2      -0.937500
     12 C8          -5.5320    -1.3840    -1.1830 c6         1 6G2      -0.108400
     13 C4          -1.3270     0.4630     0.2240 cc         1 6G2      -0.076400
     14 N3          -2.9170    -1.2190     0.3500 nd         1 6G2      -0.640000
     15 C7          -5.1490    -0.2910    -0.1800 c6         1 6G2      -0.090000
     16 C6          -3.6680    -0.2220     0.0090 cc         1 6G2       0.437700
     17 C5          -1.6120    -0.8490     0.4730 cd         1 6G2       0.335200
     18 N4          -7.7330    -1.6930    -0.0350 n7         1 6G2      -0.792200
     19 C9          -7.0510    -1.4900    -1.3020 c6         1 6G2       0.150300
     20 N5           7.8020    -1.9210    -0.3340 nb         1 6G2      -0.656000
     21 C10         -7.3670    -0.6820     0.9420 c6         1 6G2       0.150300
     22 S1          -2.8010     1.2610    -0.1940 ss         1 6G2      -0.186300
     23 O1           3.5790     0.4920     0.1170 os         1 6G2      -0.322900
     24 C17          7.0670    -1.7360    -1.4240 ca         1 6G2       0.398200
     25 C18          7.2010    -1.7840     0.8430 ca         1 6G2       0.398200
     26 C19          5.8590    -1.4660     0.9830 ca         1 6G2      -0.224300
     27 H1          -0.8110     3.1320     0.5300 h4         1 6G2       0.024100
     28 H2          -5.4620    -1.4440     1.6160 hc         1 6G2       0.055200
     29 H3          -5.6630     0.2890     1.8470 hc         1 6G2       0.055200
     30 H4           1.1150    -0.6590     0.0070 ha         1 6G2       0.141000
     31 H5           3.1120    -1.2090    -0.9750 h1         1 6G2       0.046200
     32 H6           3.1730    -1.4280     0.7820 h1         1 6G2       0.046200
     33 H7           5.1710    -1.2760    -2.3140 ha         1 6G2       0.145000
     34 H8           3.4930     4.1500     0.3460 hn         1 6G2       0.426800
     35 H9           4.3750     2.7230     0.1040 hn         1 6G2       0.426800
     36 H10         -5.0940    -1.1690    -2.1610 hc         1 6G2       0.055200
     37 H11         -5.1200    -2.3410    -0.8490 hc         1 6G2       0.055200
     38 H12         -5.4910     0.6720    -0.5770 hc         1 6G2       0.056700
     39 H13         -0.8780    -1.5880     0.7670 h4         1 6G2       0.038100
     40 H14         -7.4910    -2.6080     0.3280 hn         1 6G2       0.351800
     41 H16         -7.4420    -0.5730    -1.7560 h1         1 6G2       0.052450
     42 H17         -7.3140    -2.3060    -1.9780 h1         1 6G2       0.052450
     43 H18         -7.8550    -0.9180     1.8900 h1         1 6G2       0.052450
     44 H19         -7.7790     0.2780     0.6100 h1         1 6G2       0.052450
     45 H20          7.5730    -1.8530    -2.3760 h4         1 6G2       0.022600
     46 H21          7.8150    -1.9400     1.7230 h4         1 6G2       0.022600
     47 H22          5.4250    -1.3750     1.9700 ha         1 6G2       0.145000
@<TRIPOS>BOND
     1     1     6 ar  
     2     1    10 ar  
     3     1    11 1   
     4     2     3 ar  
     5     2    10 ar  
     6     2    27 1   
     7     3     5 ar  
     8     3    13 1   
     9     4    15 1   
    10     4    21 1   
    11     4    28 1   
    12     4    29 1   
    13     5     6 ar  
    14     5    30 1   
    15     6    23 1   
    16     7     8 1   
    17     7    23 1   
    18     7    31 1   
    19     7    32 1   
    20     8     9 ar  
    21     8    26 ar  
    22     9    24 ar  
    23     9    33 1   
    24    11    34 1   
    25    11    35 1   
    26    12    15 1   
    27    12    19 1   
    28    12    36 1   
    29    12    37 1   
    30    13    17 2   
    31    13    22 1   
    32    14    16 2   
    33    14    17 1   
    34    15    16 1   
    35    15    38 1   
    36    16    22 1   
    37    17    39 1   
    38    18    19 1   
    39    18    21 1   
    40    18    40 1   
    41    19    41 1   
    42    19    42 1   
    43    20    24 ar  
    44    20    25 ar  
    45    21    43 1   
    46    21    44 1   
    47    24    45 1   
    48    25    26 ar  
    49    25    46 1   
    50    26    47 1   
@<TRIPOS>SUBSTRUCTURE
     1 6G2         1 TEMP              0 ****  ****    0 ROOT
