@<TRIPOS>MOLECULE
6G2
   47    50     1     0     0
SMALL
No Charge or Current Charge


@<TRIPOS>ATOM
      1 C1           2.3410     2.5390     0.3240 ca         1 6G2       0.599900
      2 C2           0.0600     2.6190     0.3670 ca         1 6G2       0.370900
      3 C3          -0.0550     1.2120     0.2380 ca         1 6G2      -0.085000
      4 C11         -5.9020    -0.6150     1.2090 c6         1 6G2      -0.108400
      5 C12          1.1310     0.4500     0.1350 ca         1 6G2      -0.117000
      6 C13          2.3700     1.1270     0.1780 ca         1 6G2       0.026100
      7 C14          3.6730    -0.9660    -0.0710 c3         1 6G2       0.207900
      8 C15          5.1430    -1.3530    -0.1490 ca         1 6G2      -0.059300
      9 C16          5.8120    -1.4370    -1.3850 ca         1 6G2      -0.141000
     10 N2           1.2410     3.2790     0.4100 nb         1 6G2      -0.729000
     11 N1           3.4330     3.3220     0.3730 nv         1 6G2      -1.047900
     12 C8          -5.5350    -1.3190    -1.2090 c6         1 6G2      -0.108400
     13 C4          -1.3790     0.5780     0.1970 cc         1 6G2      -0.156000
     14 N3          -2.8980    -1.1520     0.4790 nd         1 6G2      -0.640000
     15 C7          -5.1790    -0.2650    -0.1220 c6         1 6G2      -0.090000
     16 C6          -3.6790    -0.1520     0.0730 cc         1 6G2       0.437700
     17 C5          -1.5770    -0.7360     0.5580 cd         1 6G2       0.269900
     18 N4          -7.7000    -1.7990    -0.0580 n7         1 6G2      -0.847400
     19 C9          -7.0690    -1.4680    -1.3590 c6         1 6G2       0.150300
     20 N5           7.8830    -2.0680    -0.2930 nb         1 6G2      -0.656000
     21 C10         -7.4250    -0.7840     0.9890 c6         1 6G2       0.150300
     22 S1          -2.8650     1.3680    -0.2310 ss         1 6G2      -0.041400
     23 O1           3.5870     0.4630     0.0740 os         1 6G2      -0.346100
     24 C17          7.1710    -1.7950    -1.4110 ca         1 6G2       0.332900
     25 C18          7.2420    -1.9860     0.8970 ca         1 6G2       0.332900
     26 C19          5.8850    -1.6350     1.0130 ca         1 6G2      -0.141000
     27 H1          -0.8290     3.2430     0.4470 h4         1 6G2       0.024100
     28 H2          -5.4910    -1.5420     1.6330 hc         1 6G2       0.055200
     29 H3          -5.7240     0.1740     1.9540 hc         1 6G2       0.055200
     30 H4           1.0830    -0.6270     0.0100 ha         1 6G2       0.123000
     31 H5           3.1600    -1.2940    -0.9850 h1         1 6G2       0.046200
     32 H6           3.2070    -1.4710     0.7850 h1         1 6G2       0.046200
     33 H7           5.2920    -1.2260    -2.3160 ha         1 6G2       0.127000
     34 H8           3.2700     4.3030     0.1830 hn         1 6G2       0.482000
     35 H9           4.2970     2.9210     0.0250 hn         1 6G2       0.482000
     36 H10         -5.0980    -1.0290    -2.1740 hc         1 6G2       0.055200
     37 H11         -5.0990    -2.2940    -0.9500 hc         1 6G2       0.055200
     38 H12         -5.5610     0.7080    -0.4640 hc         1 6G2       0.056700
     39 H13         -0.8200    -1.4360     0.8900 h4         1 6G2       0.038100
     40 H14         -7.3210    -2.6990     0.2620 hn         1 6G2       0.407000
     41 H16         -7.4930    -0.5280    -1.7460 h1         1 6G2       0.052450
     42 H17         -7.2930    -2.2570    -2.0920 h1         1 6G2       0.052450
     43 H18         -7.9040    -1.0850     1.9330 h1         1 6G2       0.052450
     44 H19         -7.8630     0.1810     0.6900 h1         1 6G2       0.052450
     45 H20          7.7070    -1.8650    -2.3570 h4         1 6G2       0.022600
     46 H21          7.8340    -2.2070     1.7840 h4         1 6G2       0.022600
     47 H22          5.4250    -1.5830     1.9950 ha         1 6G2       0.127000
@<TRIPOS>BOND
     1     1     6 ar  
     2     1    10 ar  
     3     1    11 1   
     4     2     3 ar  
     5     2    10 ar  
     6     2    27 1   
     7     3     5 ar  
     8     3    13 1   
     9     4    15 1   
    10     4    21 1   
    11     4    28 1   
    12     4    29 1   
    13     5     6 ar  
    14     5    30 1   
    15     6    23 1   
    16     7     8 1   
    17     7    23 1   
    18     7    31 1   
    19     7    32 1   
    20     8     9 ar  
    21     8    26 ar  
    22     9    24 ar  
    23     9    33 1   
    24    11    34 1   
    25    11    35 1   
    26    12    15 1   
    27    12    19 1   
    28    12    36 1   
    29    12    37 1   
    30    13    17 2   
    31    13    22 1   
    32    14    16 2   
    33    14    17 1   
    34    15    16 1   
    35    15    38 1   
    36    16    22 1   
    37    17    39 1   
    38    18    19 1   
    39    18    21 1   
    40    18    40 1   
    41    19    41 1   
    42    19    42 1   
    43    20    24 ar  
    44    20    25 ar  
    45    21    43 1   
    46    21    44 1   
    47    24    45 1   
    48    25    26 ar  
    49    25    46 1   
    50    26    47 1   
@<TRIPOS>SUBSTRUCTURE
     1 6G2         1 TEMP              0 ****  ****    0 ROOT
