@<TRIPOS>MOLECULE
6G3
   60    64     1     0     0
SMALL
abcg2


@<TRIPOS>ATOM
      1 C10         11.1960    38.4430     7.4460 cc         1 6G3       0.354900
      2 C15          5.1500    37.0320     8.1330 ca         1 6G3      -0.065000
      3 C17          4.1150    36.3400    10.2010 ca         1 6G3      -0.021000
      4 C20          7.0600    38.5150    10.9770 ca         1 6G3      -0.114000
      5 C21          7.0610    38.4890    12.3470 ca         1 6G3      -0.099000
      6 C22          6.1170    37.7060    13.0430 ca         1 6G3      -0.110000
      7 C28          0.0260    35.5620    12.8180 ca         1 6G3      -0.006000
      8 C02          7.9720    40.9500     5.5190 c3         1 6G3      -0.071000
      9 C03          8.4720    40.4470     4.1560 c3         1 6G3      -0.088100
     10 C04          7.9350    39.8670     6.5540 cc         1 6G3       0.359800
     11 N05          6.8200    39.4180     7.1230 nd         1 6G3      -0.554300
     12 C06          7.1600    38.4400     8.0160 cd         1 6G3       0.101400
     13 C07          8.5380    38.2650     7.9890 cc         1 6G3      -0.229000
     14 N08          9.0130    39.1940     7.0530 na         1 6G3       0.087200
     15 C09         10.3730    39.2890     6.7890 cd         1 6G3      -0.227000
     16 N11         10.7860    37.4880     8.3370 nc         1 6G3      -0.781000
     17 C12          9.4970    37.3850     8.5920 cd         1 6G3       0.668900
     18 N13          9.0760    36.3860     9.4060 nv         1 6G3      -1.060900
     19 C14          6.1320    37.7320     8.7990 ca         1 6G3      -0.004800
     20 C16          4.1390    36.3490     8.8280 ca         1 6G3      -0.133000
     21 C18          5.1170    37.0290    10.9400 ca         1 6G3      -0.027000
     22 C19          6.1150    37.7680    10.2280 ca         1 6G3      -0.027000
     23 C23          5.1650    37.0010    12.3550 ca         1 6G3      -0.076000
     24 C25          2.1110    36.2000    11.6020 c          1 6G3       0.654100
     25 O26          2.0670    37.4080    11.7990 o          1 6G3      -0.588100
     26 N27          1.1940    35.3010    12.0970 ns         1 6G3      -0.165000
     27 C29         -0.7160    34.4590    13.2550 ca         1 6G3      -0.148000
     28 C30         -1.8920    34.6330    13.9680 ca         1 6G3      -0.084000
     29 C31         -2.3570    35.9090    14.2610 ca         1 6G3      -0.093000
     30 C32         -1.6180    37.0030    13.8220 ca         1 6G3      -0.158300
     31 C33         -0.4360    36.8500    13.1090 ca         1 6G3      -0.091000
     32 C34         -2.1070    38.3810    14.1610 c3         1 6G3       0.342300
     33 F35         -1.4510    39.3550    13.5000 f          1 6G3      -0.111667
     34 F36         -1.9730    38.6570    15.4850 f          1 6G3      -0.111667
     35 F37         -3.4240    38.5390    13.8810 f          1 6G3      -0.111667
     36 H1          12.2620    38.5000     7.2640 h4         1 6G3       0.028100
     37 H2           5.1580    37.0060     7.0510 ha         1 6G3       0.130000
     38 H3           7.7920    39.1120    10.4490 ha         1 6G3       0.124000
     39 H4           7.7930    39.0660    12.8980 ha         1 6G3       0.117000
     40 H5           6.1420    37.6690    14.1250 ha         1 6G3       0.117000
     41 H6           8.3540    42.5540     6.9450 hc         1 6G3       0.040033
     42 H7           9.8020    42.0130     6.0900 hc         1 6G3       0.040033
     43 H8           8.6080    42.9980     5.2510 hc         1 6G3       0.040033
     44 H9           6.9230    41.2310     5.4010 hc         1 6G3       0.082700
     45 H10          7.8930    39.5840     3.8230 hc         1 6G3       0.040033
     46 H11          8.3680    41.2390     3.4130 hc         1 6G3       0.040033
     47 H12          9.5240    40.1580     4.1890 hc         1 6G3       0.040033
     48 H13         10.7050    40.0240     6.0790 h4         1 6G3       0.154000
     49 H14          9.7830    35.9010     9.9360 hn         1 6G3       0.495000
     50 H15          8.1530    36.4120     9.8050 hn         1 6G3       0.495000
     51 H16          3.3710    35.8190     8.2800 ha         1 6G3       0.116000
     52 H17          4.4370    36.4100    12.8920 ha         1 6G3       0.121000
     53 H18          2.9270    34.6740    10.5050 hn         1 6G3       0.145000
     54 H19          1.3830    34.3230    11.9360 hn         1 6G3       0.149000
     55 H20         -0.3630    33.4600    13.0290 ha         1 6G3       0.113000
     56 H21         -2.4500    33.7660    14.2960 ha         1 6G3       0.122000
     57 H22         -3.2750    36.0480    14.8160 ha         1 6G3       0.132000
     58 H23          0.1240    37.7060    12.7790 ha         1 6G3       0.171000
     59 N24          3.1110    35.5960    10.8740 ns         1 6G3      -0.175000
     60 C01          8.7330    42.2000     5.9850 c3         1 6G3      -0.088100
@<TRIPOS>BOND
     1     1    15 2   
     2     1    16 1   
     3     1    36 1   
     4     2    19 ar  
     5     2    20 ar  
     6     2    37 1   
     7     3    20 ar  
     8     3    21 ar  
     9     3    59 1   
    10     4     5 ar  
    11     4    22 ar  
    12     4    38 1   
    13     5     6 ar  
    14     5    39 1   
    15     6    23 ar  
    16     6    40 1   
    17     7    26 1   
    18     7    27 ar  
    19     7    31 ar  
    20     8     9 1   
    21     8    10 1   
    22     8    44 1   
    23     8    60 1   
    24     9    45 1   
    25     9    46 1   
    26     9    47 1   
    27    10    11 2   
    28    10    14 1   
    29    11    12 1   
    30    12    13 2   
    31    12    19 1   
    32    13    14 1   
    33    13    17 1   
    34    14    15 1   
    35    15    48 1   
    36    16    17 2   
    37    17    18 1   
    38    18    49 1   
    39    18    50 1   
    40    19    22 ar  
    41    20    51 1   
    42    21    22 ar  
    43    21    23 ar  
    44    23    52 1   
    45    24    25 2   
    46    24    26 1   
    47    24    59 1   
    48    26    54 1   
    49    27    28 ar  
    50    27    55 1   
    51    28    29 ar  
    52    28    56 1   
    53    29    30 ar  
    54    29    57 1   
    55    30    31 ar  
    56    30    32 1   
    57    31    58 1   
    58    32    33 1   
    59    32    34 1   
    60    32    35 1   
    61    41    60 1   
    62    42    60 1   
    63    43    60 1   
    64    53    59 1   
@<TRIPOS>SUBSTRUCTURE
     1 6G3         1 TEMP              0 ****  ****    0 ROOT
