@<TRIPOS>MOLECULE
6G3
   60    64     1     0     0
SMALL
No Charge or Current Charge


@<TRIPOS>ATOM
      1 C10         11.2810    38.5930     7.9000 cc         1 6G3       0.354900
      2 C15          5.0070    37.3230     7.9410 ca         1 6G3      -0.065000
      3 C17          3.9230    36.6360    10.0090 ca         1 6G3      -0.021000
      4 C20          7.0090    38.5800    10.8370 ca         1 6G3      -0.114000
      5 C21          6.9880    38.5460    12.2390 ca         1 6G3      -0.099000
      6 C22          5.9950    37.8200    12.9040 ca         1 6G3      -0.110000
      7 C28         -0.1880    35.5990    12.7350 ca         1 6G3      -0.006000
      8 C02          8.2940    40.6580     5.1650 c3         1 6G3      -0.071000
      9 C03          9.0490    40.0320     3.9680 c3         1 6G3      -0.088100
     10 C04          8.1400    39.7070     6.3390 cc         1 6G3       0.359800
     11 N05          6.9560    39.2750     6.7760 nd         1 6G3      -0.554300
     12 C06          7.2050    38.4310     7.8490 cd         1 6G3       0.101400
     13 C07          8.5630    38.3580     8.0420 cc         1 6G3      -0.229000
     14 N08          9.1510    39.1560     7.1170 na         1 6G3       0.087200
     15 C09         10.5270    39.3410     7.0070 cd         1 6G3      -0.227000
     16 N11         10.7320    37.7040     8.8150 nc         1 6G3      -0.781000
     17 C12          9.4280    37.6300     8.8190 cd         1 6G3       0.668900
     18 N13          9.0780    36.6910     9.6840 nv         1 6G3      -1.060900
     19 C14          6.0950    37.8630     8.6510 ca         1 6G3      -0.004800
     20 C16          3.9470    36.7000     8.6090 ca         1 6G3      -0.133000
     21 C18          4.9800    37.2220    10.7550 ca         1 6G3      -0.027000
     22 C19          6.0480    37.8740    10.0740 ca         1 6G3      -0.027000
     23 C23          4.9930    37.1690    12.1700 ca         1 6G3      -0.076000
     24 C25          1.8680    36.5070    11.4890 c          1 6G3       0.654100
     25 O26          1.8730    37.6690    11.8770 o          1 6G3      -0.588100
     26 N27          0.9320    35.5520    11.8600 ns         1 6G3      -0.165000
     27 C29         -0.9830    34.4430    12.8290 ca         1 6G3      -0.148000
     28 C30         -2.1010    34.4120    13.6780 ca         1 6G3      -0.084000
     29 C31         -2.4380    35.5400    14.4410 ca         1 6G3      -0.093000
     30 C32         -1.6590    36.7140    14.3600 ca         1 6G3      -0.158300
     31 C33         -0.5310    36.7310    13.5090 ca         1 6G3      -0.091000
     32 C34         -2.0060    37.9530    15.1970 c3         1 6G3       0.342300
     33 F35         -1.8310    39.0990    14.5010 f          1 6G3      -0.111667
     34 F36         -1.2240    38.0360    16.2970 f          1 6G3      -0.111667
     35 F37         -3.2890    37.9540    15.6250 f          1 6G3      -0.111667
     36 H1          12.3610    38.6470     7.9190 h4         1 6G3       0.028100
     37 H2           5.0070    37.3430     6.8530 ha         1 6G3       0.130000
     38 H3           7.7760    39.1810    10.3580 ha         1 6G3       0.124000
     39 H4           7.7440    39.0830    12.8080 ha         1 6G3       0.117000
     40 H5           5.9850    37.7800    13.9910 ha         1 6G3       0.117000
     41 H6           8.2740    42.4730     6.3860 hc         1 6G3       0.040033
     42 H7           9.9060    41.9650     5.9100 hc         1 6G3       0.040033
     43 H8           8.8350    42.7320     4.7240 hc         1 6G3       0.040033
     44 H9           7.2800    40.8600     4.7970 hc         1 6G3       0.082700
     45 H10          8.5860    39.0810     3.6780 hc         1 6G3       0.040033
     46 H11          9.0160    40.7010     3.1000 hc         1 6G3       0.040033
     47 H12         10.1010    39.8400     4.2040 hc         1 6G3       0.040033
     48 H13         10.9320    40.0210     6.2720 h4         1 6G3       0.154000
     49 H14          9.8290    36.4330    10.3080 hn         1 6G3       0.495000
     50 H15          8.1590    36.7780    10.0960 hn         1 6G3       0.495000
     51 H16          3.1330    36.2670     8.0300 ha         1 6G3       0.116000
     52 H17          4.2290    36.6310    12.7200 ha         1 6G3       0.121000
     53 H18          2.6560    35.0410    10.3140 hn         1 6G3       0.145000
     54 H19          1.0730    34.6470    11.4310 hn         1 6G3       0.149000
     55 H20         -0.7350    33.5610    12.2440 ha         1 6G3       0.113000
     56 H21         -2.7070    33.5110    13.7450 ha         1 6G3       0.122000
     57 H22         -3.3050    35.4920    15.0980 ha         1 6G3       0.132000
     58 H23          0.0720    37.6340    13.4680 ha         1 6G3       0.171000
     59 N24          2.8040    35.9990    10.6040 ns         1 6G3      -0.175000
     60 C01          8.8660    42.0380     5.5720 c3         1 6G3      -0.088100
@<TRIPOS>BOND
     1     1    15 2   
     2     1    16 1   
     3     1    36 1   
     4     2    19 ar  
     5     2    20 ar  
     6     2    37 1   
     7     3    20 ar  
     8     3    21 ar  
     9     3    59 1   
    10     4     5 ar  
    11     4    22 ar  
    12     4    38 1   
    13     5     6 ar  
    14     5    39 1   
    15     6    23 ar  
    16     6    40 1   
    17     7    26 1   
    18     7    27 ar  
    19     7    31 ar  
    20     8     9 1   
    21     8    10 1   
    22     8    44 1   
    23     8    60 1   
    24     9    45 1   
    25     9    46 1   
    26     9    47 1   
    27    10    11 2   
    28    10    14 1   
    29    11    12 1   
    30    12    13 2   
    31    12    19 1   
    32    13    14 1   
    33    13    17 1   
    34    14    15 1   
    35    15    48 1   
    36    16    17 2   
    37    17    18 1   
    38    18    49 1   
    39    18    50 1   
    40    19    22 ar  
    41    20    51 1   
    42    21    22 ar  
    43    21    23 ar  
    44    23    52 1   
    45    24    25 2   
    46    24    26 1   
    47    24    59 1   
    48    26    54 1   
    49    27    28 ar  
    50    27    55 1   
    51    28    29 ar  
    52    28    56 1   
    53    29    30 ar  
    54    29    57 1   
    55    30    31 ar  
    56    30    32 1   
    57    31    58 1   
    58    32    33 1   
    59    32    34 1   
    60    32    35 1   
    61    41    60 1   
    62    42    60 1   
    63    43    60 1   
    64    53    59 1   
@<TRIPOS>SUBSTRUCTURE
     1 6G3         1 TEMP              0 ****  ****    0 ROOT
