@<TRIPOS>MOLECULE
6G4
   48    47     1     0     0
SMALL
bcc


@<TRIPOS>ATOM
      1 N            7.0930     1.5800    -0.6910 n8         1 6G4      -0.873800
      2 CA           6.8950     0.4060     0.1440 c3         1 6G4       0.021500
      3 C            8.0320    -0.6140    -0.0750 c          1 6G4       0.935600
      4 CB           5.5560    -0.3220    -0.0640 c3         1 6G4      -0.102400
      5 CG           4.3300     0.5430     0.2020 c3         1 6G4      -0.076400
      6 CD           3.0200    -0.2150     0.0290 c3         1 6G4      -0.095400
      7 CE           1.8210     0.6830     0.2890 c3         1 6G4       0.099000
      8 NZ           0.5760    -0.0320     0.0920 ns         1 6G4      -0.569900
      9 O1           8.6020    -0.6010    -1.1850 o          1 6G4      -0.836800
     10 O11         -4.2750    -1.6260    -0.4480 o          1 6G4      -0.528100
     11 C5          -4.3510    -0.4580    -0.1390 c          1 6G4       0.569100
     12 C6          -5.6720     0.2560     0.0050 c3         1 6G4      -0.183400
     13 C7          -6.9060    -0.6040    -0.2080 c3         1 6G4      -0.065400
     14 C8          -8.1910     0.1970    -0.0320 c3         1 6G4      -0.077400
     15 C9          -9.4500    -0.6370    -0.2280 c3         1 6G4      -0.074400
     16 C10        -10.7260     0.1720    -0.0390 c3         1 6G4      -0.088100
     17 C4          -3.1320     0.3900     0.1260 c3         1 6G4      -0.169400
     18 C3          -1.8140    -0.3420    -0.0310 c3         1 6G4      -0.151400
     19 C1          -0.6210     0.5550     0.2400 c          1 6G4       0.659100
     20 O2          -0.7340     1.7280     0.5710 o          1 6G4      -0.622100
     21 O3           8.2550    -1.4050     0.8640 o          1 6G4      -0.836800
     22 H1           7.1710     1.2820    -1.6550 hn         1 6G4       0.317800
     23 H2           6.2850     2.1880    -0.6380 hn         1 6G4       0.317800
     24 H4           6.9290     0.7330     1.1900 h1         1 6G4       0.042700
     25 H5           5.5140    -0.7070    -1.0900 hc         1 6G4       0.043700
     26 H6           5.5290    -1.1930     0.5980 hc         1 6G4       0.043700
     27 H7           4.3860     0.9490     1.2180 hc         1 6G4       0.031200
     28 H8           4.3250     1.4040    -0.4740 hc         1 6G4       0.031200
     29 H9           2.9630    -0.6200    -0.9860 hc         1 6G4       0.040700
     30 H10          2.9940    -1.0700     0.7120 hc         1 6G4       0.040700
     31 H11          1.8690     1.0730     1.3100 h1         1 6G4       0.049200
     32 H12          1.8590     1.5480    -0.3810 h1         1 6G4       0.049200
     33 H13          0.6180    -0.9980    -0.1890 hn         1 6G4       0.313500
     34 H15         -5.6930     0.7200     0.9980 hc         1 6G4       0.060700
     35 H16         -5.6670     1.1000    -0.6950 hc         1 6G4       0.060700
     36 H17         -6.8860    -1.0440    -1.2090 hc         1 6G4       0.050200
     37 H18         -6.9010    -1.4410     0.4960 hc         1 6G4       0.050200
     38 H19         -8.2060     0.6450     0.9680 hc         1 6G4       0.035700
     39 H20         -8.1980     1.0350    -0.7390 hc         1 6G4       0.035700
     40 H21         -9.4400    -1.0790    -1.2290 hc         1 6G4       0.038700
     41 H22         -9.4420    -1.4760     0.4740 hc         1 6G4       0.038700
     42 H23        -10.7840     0.9930    -0.7550 hc         1 6G4       0.030033
     43 H24        -11.6160    -0.4450    -0.1710 hc         1 6G4       0.030033
     44 H25        -10.7710     0.6050     0.9620 hc         1 6G4       0.030033
     45 H26         -3.1780     1.2560    -0.5420 hc         1 6G4       0.076200
     46 H27         -3.2290     0.8070     1.1330 hc         1 6G4       0.076200
     47 H28         -1.7680    -1.1990     0.6470 hc         1 6G4       0.067200
     48 H29         -1.7210    -0.7550    -1.0390 hc         1 6G4       0.067200
@<TRIPOS>BOND
     1     1     2 1   
     2     1    22 1   
     3     1    23 1   
     4     2     3 1   
     5     2     4 1   
     6     2    24 1   
     7     3     9 1   
     8     3    21 1   
     9     4     5 1   
    10     4    25 1   
    11     4    26 1   
    12     5     6 1   
    13     5    27 1   
    14     5    28 1   
    15     6     7 1   
    16     6    29 1   
    17     6    30 1   
    18     7     8 1   
    19     7    31 1   
    20     7    32 1   
    21     8    19 1   
    22     8    33 1   
    23    10    11 2   
    24    11    12 1   
    25    11    17 1   
    26    12    13 1   
    27    12    34 1   
    28    12    35 1   
    29    13    14 1   
    30    13    36 1   
    31    13    37 1   
    32    14    15 1   
    33    14    38 1   
    34    14    39 1   
    35    15    16 1   
    36    15    40 1   
    37    15    41 1   
    38    16    42 1   
    39    16    43 1   
    40    16    44 1   
    41    17    18 1   
    42    17    45 1   
    43    17    46 1   
    44    18    19 1   
    45    18    47 1   
    46    18    48 1   
    47    19    20 2   
@<TRIPOS>SUBSTRUCTURE
     1 6G4         1 TEMP              0 ****  ****    0 ROOT
