@<TRIPOS>MOLECULE
6G5
   26    27     1     0     0
SMALL
No Charge or Current Charge


@<TRIPOS>ATOM
      1 N1         -17.6630    41.8250   -77.5410 na         1 6G5      -0.227700
      2 C4         -16.8420    42.5730   -75.3050 ca         1 6G5      -0.138000
      3 C5         -16.8360    42.5480   -76.7050 ca         1 6G5      -0.056200
      4 C6         -15.9460    43.2820   -77.4490 ca         1 6G5      -0.061800
      5 C7         -17.3250    42.0720   -78.8840 cc         1 6G5      -0.144100
      6 C8         -16.2690    42.9780   -78.8430 cd         1 6G5      -0.071400
      7 C10        -16.3110    44.6950   -80.7770 c3         1 6G5       0.029500
      8 C11        -17.7350    44.2630   -81.3470 c          1 6G5       0.720000
      9 O2         -17.7830    43.3330   -82.1440 o          1 6G5      -0.735500
     10 N2         -16.2420    45.9400   -79.9240 n8         1 6G5      -0.988200
     11 C9         -15.5870    43.4960   -80.0940 c3         1 6G5       0.019800
     12 C1         -14.9840    44.1050   -76.8180 ca         1 6G5       0.194000
     13 Cl1        -13.7920    45.0700   -77.6880 cl         1 6G5      -0.228000
     14 C2         -14.9720    44.1460   -75.4070 ca         1 6G5      -0.163000
     15 C3         -15.8960    43.3860   -74.6520 ca         1 6G5      -0.107000
     16 H1         -18.4030    41.2040   -77.2270 hn         1 6G5       0.338000
     17 H2         -17.5560    41.9830   -74.7360 ha         1 6G5       0.099000
     18 H3         -17.8350    41.6090   -79.7250 h4         1 6G5       0.240000
     19 H4         -15.7120    44.9400   -81.6650 h1         1 6G5      -0.008300
     20 H6         -15.2620    46.1550   -79.7100 hn         1 6G5       0.379000
     21 H7         -16.5700    46.7430   -80.4720 hn         1 6G5       0.379000
     22 H9         -15.5190    42.6780   -80.8210 hc         1 6G5       0.032200
     23 H10        -14.5460    43.7610   -79.8940 hc         1 6G5       0.032200
     24 H11        -14.2430    44.7680   -74.8950 ha         1 6G5       0.108000
     25 H12        -15.8740    43.4280   -73.5650 ha         1 6G5       0.095000
     26 O1         -18.7300    44.9020   -81.0240 o          1 6G5      -0.735500
@<TRIPOS>BOND
     1     1     3 1   
     2     1     5 1   
     3     1    16 1   
     4     2     3 ar  
     5     2    15 ar  
     6     2    17 1   
     7     3     4 ar  
     8     4     6 1   
     9     4    12 ar  
    10     5     6 2   
    11     5    18 1   
    12     6    11 1   
    13     7     8 1   
    14     7    10 1   
    15     7    11 1   
    16     7    19 1   
    17     8     9 1   
    18     8    26 1   
    19    10    20 1   
    20    10    21 1   
    21    11    22 1   
    22    11    23 1   
    23    12    13 1   
    24    12    14 ar  
    25    14    15 ar  
    26    14    24 1   
    27    15    25 1   
@<TRIPOS>SUBSTRUCTURE
     1 6G5         1 TEMP              0 ****  ****    0 ROOT
