@<TRIPOS>MOLECULE
6G5
   26    27     1     0     0
SMALL
abcg2


@<TRIPOS>ATOM
      1 N1         -17.6310    41.8570   -77.5720 na         1 6G5      -0.227700
      2 C4         -16.8800    42.6320   -75.3320 ca         1 6G5      -0.138000
      3 C5         -16.8420    42.5680   -76.7240 ca         1 6G5      -0.056200
      4 C6         -15.9060    43.2830   -77.5170 ca         1 6G5      -0.061800
      5 C7         -17.2390    42.0930   -78.8570 cc         1 6G5      -0.144100
      6 C8         -16.1860    42.9650   -78.8910 cd         1 6G5      -0.071400
      7 C10        -16.2620    44.6790   -80.7740 c3         1 6G5       0.029500
      8 C11        -17.6910    44.3280   -81.2600 c          1 6G5       0.720000
      9 O2         -17.8060    43.2690   -81.9110 o          1 6G5      -0.735500
     10 N2         -16.2800    45.7940   -79.8450 n8         1 6G5      -0.988200
     11 C9         -15.5510    43.4700   -80.1490 c3         1 6G5       0.019800
     12 C1         -14.9720    44.0620   -76.8220 ca         1 6G5       0.194000
     13 CL1        -13.7290    44.9370   -77.6660 cl         1 6G5      -0.228000
     14 C2         -14.9920    44.1410   -75.4450 ca         1 6G5      -0.163000
     15 C3         -15.9480    43.4310   -74.7060 ca         1 6G5      -0.107000
     16 H1         -18.3850    41.2500   -77.2950 hn         1 6G5       0.338000
     17 H2         -17.6150    42.0740   -74.7670 ha         1 6G5       0.099000
     18 H3         -17.7500    41.6260   -79.6840 h4         1 6G5       0.240000
     19 H4         -15.6950    44.9140   -81.6940 h1         1 6G5      -0.008300
     20 H6         -15.3520    46.1860   -79.7610 hn         1 6G5       0.379000
     21 H7         -16.8770    46.5190   -80.2180 hn         1 6G5       0.379000
     22 H9         -15.5350    42.6710   -80.8910 hc         1 6G5       0.032200
     23 H10        -14.5070    43.7270   -79.9680 hc         1 6G5       0.032200
     24 H11        -14.2620    44.7510   -74.9300 ha         1 6G5       0.108000
     25 H12        -15.9430    43.5120   -73.6270 ha         1 6G5       0.095000
     26 O1         -18.5970    45.1450   -81.0050 o          1 6G5      -0.735500
@<TRIPOS>BOND
     1     1     3 1   
     2     1     5 1   
     3     1    16 1   
     4     2     3 ar  
     5     2    15 ar  
     6     2    17 1   
     7     3     4 ar  
     8     4     6 1   
     9     4    12 ar  
    10     5     6 2   
    11     5    18 1   
    12     6    11 1   
    13     7     8 1   
    14     7    10 1   
    15     7    11 1   
    16     7    19 1   
    17     8     9 1   
    18     8    26 1   
    19    10    20 1   
    20    10    21 1   
    21    11    22 1   
    22    11    23 1   
    23    12    13 1   
    24    12    14 ar  
    25    14    15 ar  
    26    14    24 1   
    27    15    25 1   
@<TRIPOS>SUBSTRUCTURE
     1 6G5         1 TEMP              0 ****  ****    0 ROOT
