@<TRIPOS>MOLECULE
6G7
   31    33     1     0     0
SMALL
No Charge or Current Charge


@<TRIPOS>ATOM
      1 C1          -3.6260     1.1220     0.0050 ca         1 6G7       0.205100
      2 C2          -3.5900    -0.1150    -0.6460 ca         1 6G7      -0.271000
      3 C3          -2.4460    -0.9180    -0.5610 ca         1 6G7       0.246100
      4 C9          -0.1120    -1.3340     0.2520 cc         1 6G7       0.480500
      5 C12          1.9980    -1.9950     0.7010 c          1 6G7       0.572000
      6 C14          1.7080     0.4480     0.2370 ca         1 6G7       0.004600
      7 C15          1.2520     1.2590    -0.8340 ca         1 6G7       0.182000
      8 C16          1.6990     2.5830    -0.9700 ca         1 6G7      -0.147000
      9 C19          2.5870     1.0170     1.1830 ca         1 6G7      -0.063000
     10 C4          -1.3050    -0.4820     0.1470 ca         1 6G7      -0.274900
     11 C5          -1.3750     0.7490     0.8400 ca         1 6G7      -0.004000
     12 C6          -2.5260     1.5490     0.7550 ca         1 6G7      -0.195000
     13 O7          -4.7370     1.9030    -0.0710 oh         1 6G7      -0.525100
     14 O8          -2.4570    -2.1270    -1.1810 oh         1 6G7      -0.539100
     15 N10         -0.1710    -2.6670     0.2840 nd         1 6G7      -0.554300
     16 N11          1.1190    -3.0230     0.5640 ns         1 6G7      -0.361400
     17 N13          1.1950    -0.8800     0.4840 n          1 6G7      -0.244500
     18 C17          2.5880     3.1290    -0.0310 ca         1 6G7      -0.074000
     19 C18          3.0300     2.3450     1.0460 ca         1 6G7      -0.122000
     20 O20          3.2000    -2.0570     0.9060 o          1 6G7      -0.540000
     21 F21          0.4420     0.7530    -1.7920 f          1 6G7      -0.162000
     22 H1          -4.4470    -0.4660    -1.2130 ha         1 6G7       0.133000
     23 H2           1.3580     3.1840    -1.8100 ha         1 6G7       0.138000
     24 H3           2.9190     0.4330     2.0380 ha         1 6G7       0.135000
     25 H4          -0.5450     1.0920     1.4540 ha         1 6G7       0.121000
     26 H5          -2.5650     2.4990     1.2800 ha         1 6G7       0.135000
     27 H6          -5.3960     1.4400    -0.6300 ho         1 6G7       0.472000
     28 H7          -1.6720    -2.6160    -0.8330 ho         1 6G7       0.510000
     29 H8           1.4480    -3.9880     0.6610 hn         1 6G7       0.495000
     30 H9           2.9330     4.1560    -0.1360 ha         1 6G7       0.123000
     31 H10          3.7110     2.7670     1.7820 ha         1 6G7       0.126000
@<TRIPOS>BOND
     1     1     2 ar  
     2     1    12 ar  
     3     1    13 1   
     4     2     3 ar  
     5     2    22 1   
     6     3    10 ar  
     7     3    14 1   
     8     4    10 1   
     9     4    15 2   
    10     4    17 1   
    11     5    16 1   
    12     5    17 1   
    13     5    20 2   
    14     6     7 ar  
    15     6     9 ar  
    16     6    17 1   
    17     7     8 ar  
    18     7    21 1   
    19     8    18 ar  
    20     8    23 1   
    21     9    19 ar  
    22     9    24 1   
    23    10    11 ar  
    24    11    12 ar  
    25    11    25 1   
    26    12    26 1   
    27    13    27 1   
    28    14    28 1   
    29    15    16 1   
    30    16    29 1   
    31    18    19 ar  
    32    18    30 1   
    33    19    31 1   
@<TRIPOS>SUBSTRUCTURE
     1 6G7         1 TEMP              0 ****  ****    0 ROOT
