@<TRIPOS>MOLECULE
6G7
   31    33     1     0     0
SMALL
bcc


@<TRIPOS>ATOM
      1 C1          -3.6460     1.0930     0.0200 ca         1 6G7       0.205100
      2 C2          -3.6270    -0.2040    -0.4750 ca         1 6G7      -0.289000
      3 C3          -2.4870    -0.9910    -0.3540 ca         1 6G7       0.246100
      4 C9          -0.1230    -1.2720     0.3080 cc         1 6G7       0.480500
      5 C12          2.0190    -1.9360     0.3870 c          1 6G7       0.781500
      6 C14          1.6680     0.4900     0.2980 ca         1 6G7       0.004600
      7 C15          1.5420     1.1780    -0.9000 ca         1 6G7       0.146900
      8 C16          2.0170     2.4650    -1.0480 ca         1 6G7      -0.165000
      9 C19          2.3110     1.0990     1.3660 ca         1 6G7      -0.081000
     10 C4          -1.3240    -0.4580     0.2410 ca         1 6G7      -0.274900
     11 C5          -1.3840     0.8410     0.7560 ca         1 6G7      -0.022000
     12 C6          -2.5180     1.6160     0.6560 ca         1 6G7      -0.213000
     13 O7          -4.7280     1.8790    -0.0730 oh         1 6G7      -0.486100
     14 O8          -2.5600    -2.2370    -0.8310 oh         1 6G7      -0.500100
     15 N10         -0.1450    -2.5650     0.2530 nd         1 6G7      -0.554300
     16 N11          1.1470    -2.9650     0.2950 ns         1 6G7      -0.314900
     17 N13          1.1750    -0.8260     0.4010 n          1 6G7      -0.311500
     18 C17          2.6540     3.0660     0.0290 ca         1 6G7      -0.092000
     19 C18          2.8070     2.3870     1.2310 ca         1 6G7      -0.140000
     20 O20          3.2310    -1.9380     0.4380 o          1 6G7      -0.615500
     21 F21          0.9340     0.5700    -1.9220 f          1 6G7      -0.126900
     22 H1          -4.5060    -0.6290    -0.9460 ha         1 6G7       0.151000
     23 H2           1.8970     2.9820    -1.9900 ha         1 6G7       0.156000
     24 H3           2.4080     0.5640     2.3010 ha         1 6G7       0.153000
     25 H4          -0.5290     1.2590     1.2680 ha         1 6G7       0.139000
     26 H5          -2.5380     2.6160     1.0690 ha         1 6G7       0.153000
     27 H6          -5.4410     1.4280    -0.5400 ho         1 6G7       0.433000
     28 H7          -1.7570    -2.7390    -0.5870 ho         1 6G7       0.471000
     29 H8           1.3800    -3.9450     0.2730 hn         1 6G7       0.381500
     30 H9           3.0340     4.0730    -0.0780 ha         1 6G7       0.141000
     31 H10          3.3080     2.8600     2.0640 ha         1 6G7       0.144000
@<TRIPOS>BOND
     1     1     2 ar  
     2     1    12 ar  
     3     1    13 1   
     4     2     3 ar  
     5     2    22 1   
     6     3    10 ar  
     7     3    14 1   
     8     4    10 1   
     9     4    15 2   
    10     4    17 1   
    11     5    16 1   
    12     5    17 1   
    13     5    20 2   
    14     6     7 ar  
    15     6     9 ar  
    16     6    17 1   
    17     7     8 ar  
    18     7    21 1   
    19     8    18 ar  
    20     8    23 1   
    21     9    19 ar  
    22     9    24 1   
    23    10    11 ar  
    24    11    12 ar  
    25    11    25 1   
    26    12    26 1   
    27    13    27 1   
    28    14    28 1   
    29    15    16 1   
    30    16    29 1   
    31    18    19 ar  
    32    18    30 1   
    33    19    31 1   
@<TRIPOS>SUBSTRUCTURE
     1 6G7         1 TEMP              0 ****  ****    0 ROOT
