@<TRIPOS>MOLECULE
6G8
   87    92     1     0     0
SMALL
abcg2


@<TRIPOS>ATOM
      1 C2          -7.5090    17.9050    -8.3040 c5         1 6G8       0.108700
      2 C3          -6.6640    18.0600    -7.0370 c5         1 6G8      -0.103400
      3 C4          -7.6640    17.9920    -5.8840 c5         1 6G8       0.104700
      4 C6          -8.8100    18.6130    -7.9350 c5         1 6G8       0.084000
      5 C11         -5.2680    14.3990    -3.7420 ca         1 6G8      -0.144600
      6 C13         -4.3350    13.0400    -1.9690 ca         1 6G8      -0.104000
      7 C16         -3.9920    14.8840    -4.0660 ca         1 6G8      -0.038300
      8 C19         -9.9080    19.0850    -4.3390 cx         1 6G8      -0.243700
      9 C21        -10.5990    20.2180    -3.6250 cx         1 6G8      -0.097900
     10 C25         -3.7250    15.8590    -5.1800 c3         1 6G8      -0.057800
     11 C26         -6.8300    15.7770    -9.3120 c          1 6G8       0.609100
     12 C30         -5.4490    12.9430    -9.6820 c5         1 6G8       0.117800
     13 C31         -6.0660    12.9310    -8.2790 c5         1 6G8       0.171300
     14 C32         -7.4690    13.4580    -8.4830 c5         1 6G8      -0.141400
     15 N1          -7.7530    16.5230    -8.6740 ns         1 6G8      -0.518900
     16 N5          -8.8780    18.5410    -6.4780 n          1 6G8      -0.418800
     17 C7          -7.9090    16.5780    -5.3520 c3         1 6G8       0.088000
     18 N8          -6.7190    16.0740    -4.7070 ns         1 6G8      -0.500900
     19 C9          -6.5250    14.7660    -4.4710 c          1 6G8       0.621700
     20 O10         -7.3360    13.9080    -4.7890 o          1 6G8      -0.606100
     21 C12         -5.4150    13.4700    -2.7110 ca         1 6G8      -0.068000
     22 C14         -3.0580    13.5160    -2.2750 ca         1 6G8       0.054000
     23 C15         -2.9080    14.4220    -3.3260 ca         1 6G8      -0.104000
     24 O18        -10.8540    19.5970    -6.4490 o          1 6G8      -0.609100
     25 C20        -11.2250    18.8720    -3.6350 cx         1 6G8      -0.097900
     26 O27         -5.7110    16.1920    -9.5640 o          1 6G8      -0.569100
     27 C28         -7.3100    14.3800    -9.7050 c5         1 6G8       0.079500
     28 N29         -6.3400    13.7140   -10.5530 n7         1 6G8      -0.817400
     29 C34         -1.9270    13.0720    -1.5370 cg         1 6G8      -0.113000
     30 C35         -0.9730    12.6840    -0.9050 ch         1 6G8      -0.093000
     31 C36          0.1450    12.2120    -0.1630 ca         1 6G8       0.025000
     32 C37          1.4450    12.5520    -0.5410 ca         1 6G8      -0.089500
     33 C38          2.5280    12.0750     0.1820 ca         1 6G8      -0.101000
     34 C39          2.3460    11.2610     1.2940 ca         1 6G8      -0.077300
     35 C40          1.0450    10.9240     1.6690 ca         1 6G8      -0.101000
     36 C41         -0.0420    11.3900     0.9550 ca         1 6G8      -0.089500
     37 C42          3.5200    10.7690     2.0990 c3         1 6G8       0.212100
     38 N43          3.4630     9.3430     2.3420 n3         1 6G8      -0.716600
     39 C44          3.6510     8.5710     1.1260 c6         1 6G8       0.125300
     40 C45          3.5510     7.0890     1.4310 c6         1 6G8       0.153100
     41 O46          4.4850     6.6920     2.4090 os         1 6G8      -0.449000
     42 C47          4.3100     7.4370     3.5940 c6         1 6G8       0.153100
     43 C48          4.4320     8.9280     3.3410 c6         1 6G8       0.125300
     44 H1          -7.0320    18.4070    -9.1460 h1         1 6G8       0.081700
     45 H2          -5.8690    17.3210    -6.9590 hc         1 6G8       0.073200
     46 H3          -6.1940    19.0450    -7.0490 hc         1 6G8       0.073200
     47 H4          -7.3240    18.6270    -5.0610 h1         1 6G8       0.053700
     48 H5          -8.7750    19.6550    -8.2620 h1         1 6G8       0.063700
     49 H6          -9.6830    18.1560    -8.4020 h1         1 6G8       0.063700
     50 H7          -4.4720    12.3320    -1.1620 ha         1 6G8       0.124000
     51 H8          -9.0390    18.6820    -3.8380 hc         1 6G8       0.085700
     52 H9         -10.1360    20.5650    -2.7110 hc         1 6G8       0.081950
     53 H10        -11.0450    20.9940    -4.2320 hc         1 6G8       0.081950
     54 H11         -3.9030    16.8890    -4.8640 hc         1 6G8       0.051367
     55 H12         -2.6830    15.8000    -5.4900 hc         1 6G8       0.051367
     56 H13         -4.3450    15.6760    -6.0540 hc         1 6G8       0.051367
     57 H14         -5.3310    11.9280   -10.0650 h1         1 6G8       0.066200
     58 H15         -4.4510    13.3840    -9.6330 h1         1 6G8       0.066200
     59 H16         -6.0360    11.9500    -7.8030 h1         1 6G8       0.068700
     60 H17         -7.8820    13.9210    -7.5870 hc         1 6G8       0.072200
     61 H18         -8.1240    12.6280    -8.7560 hc         1 6G8       0.072200
     62 H19         -8.6800    16.1480    -8.5490 hn         1 6G8       0.315500
     63 H20         -8.7520    16.5880    -4.6540 h1         1 6G8       0.058700
     64 H21         -8.1850    15.9120    -6.1680 h1         1 6G8       0.058700
     65 H22         -6.1150    16.7400    -4.2500 hn         1 6G8       0.315500
     66 H23         -6.4000    13.0850    -2.4790 ha         1 6G8       0.130000
     67 H24         -1.9140    14.7730    -3.5770 ha         1 6G8       0.121000
     68 H25        -12.0980    18.7230    -4.2570 hc         1 6G8       0.081950
     69 H26        -11.2050    18.2800    -2.7300 hc         1 6G8       0.081950
     70 H27         -8.2580    14.4880   -10.2400 h1         1 6G8       0.066700
     71 H28         -6.8350    13.0830   -11.1670 hn         1 6G8       0.408000
     72 H30          1.6070    13.1830    -1.4050 ha         1 6G8       0.120000
     73 H31          3.5310    12.3390    -0.1300 ha         1 6G8       0.121000
     74 H32          0.8860    10.2820     2.5260 ha         1 6G8       0.121000
     75 H33         -1.0460    11.1210     1.2580 ha         1 6G8       0.120000
     76 H34          4.4570    11.0670     1.6010 h1         1 6G8       0.040700
     77 H35          3.5140    11.2760     3.0690 h1         1 6G8       0.040700
     78 H37          4.6270     8.7910     0.6590 h1         1 6G8       0.042950
     79 H38          2.8800     8.8300     0.3970 h1         1 6G8       0.042950
     80 H39          2.5280     6.8590     1.7610 h1         1 6G8       0.050950
     81 H40          3.7530     6.5070     0.5300 h1         1 6G8       0.050950
     82 H41          3.3270     7.2240     4.0380 h1         1 6G8       0.050950
     83 H42          5.0750     7.1130     4.3010 h1         1 6G8       0.050950
     84 H43          5.4640     9.1640     3.0300 h1         1 6G8       0.042950
     85 H44          4.2440     9.4630     4.2750 h1         1 6G8       0.042950
     86 C17         -9.9220    19.0980    -5.8280 c          1 6G8       0.639100
     87 F33         -5.3510    13.8010    -7.4430 f          1 6G8      -0.261000
@<TRIPOS>BOND
     1     1     2 1   
     2     1     4 1   
     3     1    15 1   
     4     1    44 1   
     5     2     3 1   
     6     2    45 1   
     7     2    46 1   
     8     3    16 1   
     9     3    17 1   
    10     3    47 1   
    11     4    16 1   
    12     4    48 1   
    13     4    49 1   
    14     5     7 ar  
    15     5    19 1   
    16     5    21 ar  
    17     6    21 ar  
    18     6    22 ar  
    19     6    50 1   
    20     7    10 1   
    21     7    23 ar  
    22     8     9 1   
    23     8    25 1   
    24     8    51 1   
    25     8    86 1   
    26     9    25 1   
    27     9    52 1   
    28     9    53 1   
    29    10    54 1   
    30    10    55 1   
    31    10    56 1   
    32    11    15 1   
    33    11    26 2   
    34    11    27 1   
    35    12    13 1   
    36    12    28 1   
    37    12    57 1   
    38    12    58 1   
    39    13    14 1   
    40    13    59 1   
    41    13    87 1   
    42    14    27 1   
    43    14    60 1   
    44    14    61 1   
    45    15    62 1   
    46    16    86 1   
    47    17    18 1   
    48    17    63 1   
    49    17    64 1   
    50    18    19 1   
    51    18    65 1   
    52    19    20 2   
    53    21    66 1   
    54    22    23 ar  
    55    22    29 1   
    56    23    67 1   
    57    24    86 2   
    58    25    68 1   
    59    25    69 1   
    60    27    28 1   
    61    27    70 1   
    62    28    71 1   
    63    29    30 3   
    64    30    31 1   
    65    31    32 ar  
    66    31    36 ar  
    67    32    33 ar  
    68    32    72 1   
    69    33    34 ar  
    70    33    73 1   
    71    34    35 ar  
    72    34    37 1   
    73    35    36 ar  
    74    35    74 1   
    75    36    75 1   
    76    37    38 1   
    77    37    76 1   
    78    37    77 1   
    79    38    39 1   
    80    38    43 1   
    81    39    40 1   
    82    39    78 1   
    83    39    79 1   
    84    40    41 1   
    85    40    80 1   
    86    40    81 1   
    87    41    42 1   
    88    42    43 1   
    89    42    82 1   
    90    42    83 1   
    91    43    84 1   
    92    43    85 1   
@<TRIPOS>SUBSTRUCTURE
     1 6G8         1 TEMP              0 ****  ****    0 ROOT
