@<TRIPOS>MOLECULE
6G8
   87    92     1     0     0
SMALL
No Charge or Current Charge


@<TRIPOS>ATOM
      1 C2          -7.1910    18.0180    -8.4050 c5         1 6G8       0.108700
      2 C3          -6.5630    18.3180    -7.0140 c5         1 6G8      -0.103400
      3 C4          -7.7590    18.2930    -6.0050 c5         1 6G8       0.104700
      4 C6          -8.5600    18.7470    -8.3210 c5         1 6G8       0.084000
      5 C11         -5.5970    14.5850    -3.4310 ca         1 6G8      -0.144600
      6 C13         -4.6090    13.1610    -1.6900 ca         1 6G8      -0.104000
      7 C16         -4.2830    14.9930    -3.8170 ca         1 6G8      -0.038300
      8 C19        -10.2210    19.4920    -4.8900 cx         1 6G8      -0.243700
      9 C21        -11.5930    19.8010    -4.3160 cx         1 6G8      -0.097900
     10 C25         -3.9920    15.9090    -5.0060 c3         1 6G8      -0.057800
     11 C26         -6.4860    15.6960    -8.7910 c          1 6G8       0.609100
     12 C30         -5.2910    12.9380    -9.6440 c5         1 6G8       0.117800
     13 C31         -5.1670    12.8200    -8.0890 c5         1 6G8       0.171300
     14 C32         -6.5020    13.4250    -7.5590 c5         1 6G8      -0.141400
     15 N1          -7.4970    16.5790    -8.4440 ns         1 6G8      -0.518900
     16 N5          -8.8760    18.7650    -6.8690 n          1 6G8      -0.418800
     17 C7          -8.0310    16.9040    -5.3560 c3         1 6G8       0.088000
     18 N8          -6.8810    16.3150    -4.6600 ns         1 6G8      -0.500900
     19 C9          -6.8820    15.0650    -4.0850 c          1 6G8       0.621700
     20 O10         -7.8890    14.3700    -4.1090 o          1 6G8      -0.606100
     21 C12         -5.7300    13.6530    -2.3750 ca         1 6G8      -0.068000
     22 C14         -3.3250    13.5840    -2.0530 ca         1 6G8       0.054000
     23 C15         -3.1680    14.4900    -3.1130 ca         1 6G8      -0.104000
     24 O18        -10.8850    19.8450    -7.1730 o          1 6G8      -0.609100
     25 C20        -11.0120    18.4160    -4.1710 cx         1 6G8      -0.097900
     26 O27         -5.3530    16.0550    -9.0880 o          1 6G8      -0.569100
     27 C28         -7.0680    14.2170    -8.7720 c5         1 6G8       0.079500
     28 N29         -6.7000    13.3330    -9.9250 n7         1 6G8      -0.817400
     29 C34         -2.1760    13.0840    -1.3550 cg         1 6G8      -0.113000
     30 C35         -1.1910    12.6640    -0.7700 ch         1 6G8      -0.093000
     31 C36         -0.0310    12.1810    -0.0980 ca         1 6G8       0.025000
     32 C37          1.2240    12.2250    -0.7340 ca         1 6G8      -0.089500
     33 C38          2.3690    11.7480    -0.0720 ca         1 6G8      -0.101000
     34 C39          2.2700    11.2230     1.2320 ca         1 6G8      -0.077300
     35 C40          1.0130    11.1790     1.8640 ca         1 6G8      -0.101000
     36 C41         -0.1330    11.6560     1.2030 ca         1 6G8      -0.089500
     37 C42          3.5100    10.7010     1.9540 c3         1 6G8       0.212100
     38 N43          3.5070     9.2300     2.1410 n3         1 6G8      -0.716600
     39 C44          3.4630     8.4650     0.8540 c6         1 6G8       0.125300
     40 C45          3.4560     6.9260     1.0970 c6         1 6G8       0.153100
     41 O46          4.5880     6.5400     1.9140 os         1 6G8      -0.449000
     42 C47          4.6030     7.2110     3.1970 c6         1 6G8       0.153100
     43 C48          4.6370     8.7560     2.9990 c6         1 6G8       0.125300
     44 H1          -6.5770    18.3550    -9.2530 h1         1 6G8       0.081700
     45 H2          -5.7510    17.6340    -6.7530 hc         1 6G8       0.073200
     46 H3          -6.1180    19.3200    -7.0270 hc         1 6G8       0.073200
     47 H4          -7.5530    19.0020    -5.1920 h1         1 6G8       0.053700
     48 H5          -8.4690    19.7750    -8.6960 h1         1 6G8       0.063700
     49 H6          -9.3390    18.2450    -8.9110 h1         1 6G8       0.063700
     50 H7          -4.7430    12.4520    -0.8750 ha         1 6G8       0.124000
     51 H8          -9.3880    19.9440    -4.3600 hc         1 6G8       0.085700
     52 H9         -11.6430    20.4230    -3.4260 hc         1 6G8       0.081950
     53 H10        -12.4320    19.9240    -4.9980 hc         1 6G8       0.081950
     54 H11         -4.1610    16.9620    -4.7510 hc         1 6G8       0.051367
     55 H12         -2.9490    15.8240    -5.3330 hc         1 6G8       0.051367
     56 H13         -4.6060    15.6500    -5.8750 hc         1 6G8       0.051367
     57 H14         -5.0320    11.9940   -10.1430 h1         1 6G8       0.066200
     58 H15         -4.5960    13.7010   -10.0220 h1         1 6G8       0.066200
     59 H16         -5.0430    11.7780    -7.7650 h1         1 6G8       0.068700
     60 H17         -6.3610    14.0510    -6.6730 hc         1 6G8       0.072200
     61 H18         -7.1920    12.6240    -7.2700 hc         1 6G8       0.072200
     62 H19         -8.4130    16.1940    -8.2480 hn         1 6G8       0.315500
     63 H20         -8.8400    17.0080    -4.6260 h1         1 6G8       0.058700
     64 H21         -8.3780    16.1950    -6.1160 h1         1 6G8       0.058700
     65 H22         -6.0360    16.8610    -4.5580 hn         1 6G8       0.315500
     66 H23         -6.7180    13.3150    -2.0670 ha         1 6G8       0.130000
     67 H24         -2.1650    14.7970    -3.3990 ha         1 6G8       0.121000
     68 H25        -11.4520    17.6190    -4.7680 hc         1 6G8       0.081950
     69 H26        -10.6740    18.1090    -3.1840 hc         1 6G8       0.081950
     70 H27         -8.1620    14.2960    -8.7000 h1         1 6G8       0.066700
     71 H28         -7.2870    12.4890    -9.8820 hn         1 6G8       0.408000
     72 H30          1.3130    12.6280    -1.7400 ha         1 6G8       0.120000
     73 H31          3.3330    11.7850    -0.5740 ha         1 6G8       0.121000
     74 H32          0.9250    10.7710     2.8690 ha         1 6G8       0.121000
     75 H33         -1.0990    11.6160     1.7020 ha         1 6G8       0.120000
     76 H34          4.4070    11.0060     1.3980 h1         1 6G8       0.040700
     77 H35          3.5620    11.1970     2.9330 h1         1 6G8       0.040700
     78 H37          4.3320     8.7190     0.2290 h1         1 6G8       0.042950
     79 H38          2.5650     8.7290     0.2770 h1         1 6G8       0.042950
     80 H39          2.5250     6.6300     1.6020 h1         1 6G8       0.050950
     81 H40          3.5070     6.3950     0.1360 h1         1 6G8       0.050950
     82 H41          3.7080     6.9250     3.7670 h1         1 6G8       0.050950
     83 H42          5.4880     6.8860     3.7630 h1         1 6G8       0.050950
     84 H43          5.6010     9.0310     2.5460 h1         1 6G8       0.042950
     85 H44          4.5960     9.2390     3.9860 h1         1 6G8       0.042950
     86 C17        -10.0510    19.3920    -6.3980 c          1 6G8       0.639100
     87 F33         -4.0730    13.5490    -7.6160 f          1 6G8      -0.261000
@<TRIPOS>BOND
     1     1     2 1   
     2     1     4 1   
     3     1    15 1   
     4     1    44 1   
     5     2     3 1   
     6     2    45 1   
     7     2    46 1   
     8     3    16 1   
     9     3    17 1   
    10     3    47 1   
    11     4    16 1   
    12     4    48 1   
    13     4    49 1   
    14     5     7 ar  
    15     5    19 1   
    16     5    21 ar  
    17     6    21 ar  
    18     6    22 ar  
    19     6    50 1   
    20     7    10 1   
    21     7    23 ar  
    22     8     9 1   
    23     8    25 1   
    24     8    51 1   
    25     8    86 1   
    26     9    25 1   
    27     9    52 1   
    28     9    53 1   
    29    10    54 1   
    30    10    55 1   
    31    10    56 1   
    32    11    15 1   
    33    11    26 2   
    34    11    27 1   
    35    12    13 1   
    36    12    28 1   
    37    12    57 1   
    38    12    58 1   
    39    13    14 1   
    40    13    59 1   
    41    13    87 1   
    42    14    27 1   
    43    14    60 1   
    44    14    61 1   
    45    15    62 1   
    46    16    86 1   
    47    17    18 1   
    48    17    63 1   
    49    17    64 1   
    50    18    19 1   
    51    18    65 1   
    52    19    20 2   
    53    21    66 1   
    54    22    23 ar  
    55    22    29 1   
    56    23    67 1   
    57    24    86 2   
    58    25    68 1   
    59    25    69 1   
    60    27    28 1   
    61    27    70 1   
    62    28    71 1   
    63    29    30 3   
    64    30    31 1   
    65    31    32 ar  
    66    31    36 ar  
    67    32    33 ar  
    68    32    72 1   
    69    33    34 ar  
    70    33    73 1   
    71    34    35 ar  
    72    34    37 1   
    73    35    36 ar  
    74    35    74 1   
    75    36    75 1   
    76    37    38 1   
    77    37    76 1   
    78    37    77 1   
    79    38    39 1   
    80    38    43 1   
    81    39    40 1   
    82    39    78 1   
    83    39    79 1   
    84    40    41 1   
    85    40    80 1   
    86    40    81 1   
    87    41    42 1   
    88    42    43 1   
    89    42    82 1   
    90    42    83 1   
    91    43    84 1   
    92    43    85 1   
@<TRIPOS>SUBSTRUCTURE
     1 6G8         1 TEMP              0 ****  ****    0 ROOT
