@<TRIPOS>MOLECULE
6G9
   32    34     1     0     0
SMALL
abcg2


@<TRIPOS>ATOM
      1 C2           9.5090    -0.5030    -0.0340 c          1 6G9       0.671000
      2 C4           7.9690    -0.7450    -0.1120 c          1 6G9       0.440100
      3 C7           5.8850     0.5930     0.1140 ca         1 6G9       0.032000
      4 C8           5.4460     1.9020     0.3860 ca         1 6G9      -0.181000
      5 C12          1.2030     0.2930    -0.0520 cc         1 6G9       0.432800
      6 N13         -0.1540     0.0840    -0.1130 ns         1 6G9      -0.415400
      7 C16         -2.5030     0.5480     0.0120 cc         1 6G9      -0.231600
      8 C17         -3.6400     1.2600    -0.2960 cd         1 6G9      -0.076000
      9 C18         -4.7260     0.3840    -0.1350 cd         1 6G9      -0.083900
     10 N22         -2.8770    -0.7250     0.3500 na         1 6G9      -0.072000
     11 C24          3.6100    -0.0680    -0.0760 ca         1 6G9      -0.122000
     12 O1           9.8570     0.6630     0.2270 o          1 6G9      -0.681000
     13 O3          10.2060    -1.5000    -0.2400 o          1 6G9      -0.681000
     14 O5           7.4860    -1.8400    -0.3350 o          1 6G9      -0.605100
     15 N6           7.2610     0.3890     0.0970 ns         1 6G9      -0.141000
     16 C9           4.1070     2.2250     0.4270 ca         1 6G9      -0.030000
     17 C10          3.1590     1.2300     0.1940 ca         1 6G9       0.041400
     18 N11          1.7940     1.4000     0.2020 nd         1 6G9      -0.526100
     19 C14         -1.1280     1.0550    -0.0370 c          1 6G9       0.642700
     20 O15         -0.8970     2.2430    -0.0270 o          1 6G9      -0.507100
     21 BR1         -6.5180     0.7660    -0.4260 br         1 6G9      -0.047100
     22 C20         -4.2210    -0.8300     0.2750 cc         1 6G9      -0.089900
     23 BR2         -5.1240    -2.3850     0.6810 br         1 6G9      -0.015100
     24 S23          2.2400    -1.1000    -0.3320 ss         1 6G9      -0.060200
     25 C25          4.9520    -0.4140    -0.1220 ca         1 6G9      -0.134000
     26 H1           6.1820     2.6760     0.5660 ha         1 6G9       0.120000
     27 H2          -0.4460    -0.8580    -0.3260 hn         1 6G9       0.320500
     28 H3          -3.6790     2.2850    -0.6270 ha         1 6G9       0.164000
     29 H4          -2.2790    -1.4430     0.7340 hn         1 6G9       0.364000
     30 H6           7.8480     1.1950     0.2710 hn         1 6G9       0.187000
     31 H7           3.7920     3.2380     0.6380 ha         1 6G9       0.122000
     32 H8           5.2560    -1.4260    -0.3360 ha         1 6G9       0.164000
@<TRIPOS>BOND
     1     1     2 1   
     2     1    12 1   
     3     1    13 1   
     4     2    14 2   
     5     2    15 1   
     6     3     4 ar  
     7     3    15 1   
     8     3    25 ar  
     9     4    16 ar  
    10     4    26 1   
    11     5     6 1   
    12     5    18 2   
    13     5    24 1   
    14     6    19 1   
    15     6    27 1   
    16     7     8 2   
    17     7    10 1   
    18     7    19 1   
    19     8     9 1   
    20     8    28 1   
    21     9    21 1   
    22     9    22 2   
    23    10    22 1   
    24    10    29 1   
    25    11    17 ar  
    26    11    24 1   
    27    11    25 ar  
    28    15    30 1   
    29    16    17 ar  
    30    16    31 1   
    31    17    18 1   
    32    19    20 2   
    33    22    23 1   
    34    25    32 1   
@<TRIPOS>SUBSTRUCTURE
     1 6G9         1 TEMP              0 ****  ****    0 ROOT
