@<TRIPOS>MOLECULE
6G9
   32    34     1     0     0
SMALL
No Charge or Current Charge


@<TRIPOS>ATOM
      1 C2           9.6850    -0.4870     0.0420 c          1 6G9       0.671000
      2 C4           8.0890    -0.7840     0.0260 c          1 6G9       0.440100
      3 C7           5.9280     0.6180     0.0710 ca         1 6G9       0.032000
      4 C8           5.4920     1.9610     0.1190 ca         1 6G9      -0.181000
      5 C12          1.2070     0.2420     0.0420 cc         1 6G9       0.432800
      6 N13         -0.1650     0.0830     0.0320 ns         1 6G9      -0.415400
      7 C16         -2.5310     0.4710     0.0390 cc         1 6G9      -0.231600
      8 C17         -3.6620     1.2540     0.0640 cd         1 6G9      -0.076000
      9 C18         -4.8060     0.4330     0.0300 cd         1 6G9      -0.083900
     10 N22         -3.0040    -0.8560    -0.0120 na         1 6G9      -0.072000
     11 C24          3.5990    -0.0680     0.0380 ca         1 6G9      -0.122000
     12 O1          10.0600     0.6830     0.0860 o          1 6G9      -0.681000
     13 O3          10.4640    -1.4380     0.0090 o          1 6G9      -0.681000
     14 O5           7.6080    -1.9220    -0.0180 o          1 6G9      -0.605100
     15 N6           7.3290     0.3830     0.0670 ns         1 6G9      -0.141000
     16 C9           4.1180     2.2770     0.1260 ca         1 6G9      -0.030000
     17 C10          3.1730     1.2410     0.0850 ca         1 6G9       0.041400
     18 N11          1.7980     1.4420     0.0880 nd         1 6G9      -0.526100
     19 C14         -1.1570     1.0400     0.0640 c          1 6G9       0.642700
     20 O15         -0.9490     2.2440     0.1090 o          1 6G9      -0.507100
     21 Br1         -6.5880     1.0550     0.0470 br         1 6G9      -0.047100
     22 C20         -4.3990    -0.8690    -0.0170 cc         1 6G9      -0.089900
     23 Br2         -5.4630    -2.4260    -0.0770 br         1 6G9      -0.015100
     24 S23          2.2580    -1.1950    -0.0080 ss         1 6G9      -0.060200
     25 C25          4.9590    -0.4130     0.0300 ca         1 6G9      -0.134000
     26 H1           6.2200     2.7680     0.1510 ha         1 6G9       0.120000
     27 H2          -0.4980    -0.8660    -0.0040 hn         1 6G9       0.320500
     28 H3          -3.6750     2.3400     0.1040 ha         1 6G9       0.164000
     29 H4          -2.4360    -1.6970    -0.0410 hn         1 6G9       0.364000
     30 H6           7.8870     1.2280     0.0990 hn         1 6G9       0.187000
     31 H7           3.7910     3.3140     0.1640 ha         1 6G9       0.122000
     32 H8           5.2370    -1.4610    -0.0080 ha         1 6G9       0.164000
@<TRIPOS>BOND
     1     1     2 1   
     2     1    12 1   
     3     1    13 1   
     4     2    14 2   
     5     2    15 1   
     6     3     4 ar  
     7     3    15 1   
     8     3    25 ar  
     9     4    16 ar  
    10     4    26 1   
    11     5     6 1   
    12     5    18 2   
    13     5    24 1   
    14     6    19 1   
    15     6    27 1   
    16     7     8 2   
    17     7    10 1   
    18     7    19 1   
    19     8     9 1   
    20     8    28 1   
    21     9    21 1   
    22     9    22 2   
    23    10    22 1   
    24    10    29 1   
    25    11    17 ar  
    26    11    24 1   
    27    11    25 ar  
    28    15    30 1   
    29    16    17 ar  
    30    16    31 1   
    31    17    18 1   
    32    19    20 2   
    33    22    23 1   
    34    25    32 1   
@<TRIPOS>SUBSTRUCTURE
     1 6G9         1 TEMP              0 ****  ****    0 ROOT
