@<TRIPOS>MOLECULE
6GA
   40    41     1     0     0
SMALL
No Charge or Current Charge


@<TRIPOS>ATOM
      1 O10          0.2290    -0.8260     2.3180 o          1 6GA      -0.569100
      2 C9           0.3970    -1.3080     1.2080 c          1 6GA       0.607100
      3 C11         -0.6760    -2.0970     0.4680 c3         1 6GA      -0.228700
      4 C12         -1.0180    -3.3470     1.2750 c          1 6GA       0.611100
      5 O15         -1.5860    -3.3070     2.3580 o          1 6GA      -0.537100
      6 C16         -1.9210    -1.2240     0.1690 c3         1 6GA      -0.009100
      7 C17         -1.5620    -0.0070    -0.6770 ca         1 6GA      -0.109300
      8 C18         -1.3130    -0.1500    -2.0570 ca         1 6GA      -0.077500
      9 C19         -0.9510     0.9680    -2.8300 ca         1 6GA      -0.152000
     10 C22         -1.4450     1.2650    -0.0780 ca         1 6GA      -0.077500
     11 C21         -1.0880     2.3810    -0.8540 ca         1 6GA      -0.152000
     12 C20         -0.8400     2.2290    -2.2260 ca         1 6GA       0.168000
     13 F29         -0.4930     3.3020    -2.9700 f          1 6GA      -0.180000
     14 N8           1.5730    -1.1480     0.5100 ns         1 6GA      -0.503900
     15 C1           2.6820    -0.3000     0.9420 c3         1 6GA       0.144300
     16 C2           2.4760     1.1380     0.4850 ca         1 6GA      -0.112300
     17 C3           2.0010     2.1110     1.3860 ca         1 6GA      -0.102500
     18 C4           1.8050     3.4370     0.9590 ca         1 6GA      -0.108500
     19 C5           2.0790     3.7950    -0.3720 ca         1 6GA      -0.107000
     20 C6           2.5470     2.8270    -1.2760 ca         1 6GA      -0.108500
     21 C7           2.7440     1.5020    -0.8500 ca         1 6GA      -0.102500
     22 N1          -0.6600    -4.5490     0.6720 ns         1 6GA      -0.395400
     23 O2          -0.6860    -5.7920     1.4150 oh         1 6GA      -0.415100
     24 H1          -0.2560    -2.4190    -0.4920 hc         1 6GA       0.056700
     25 H2          -2.6720    -1.8300    -0.3530 hc         1 6GA       0.075700
     26 H3          -2.3890    -0.9110     1.1120 hc         1 6GA       0.075700
     27 H4          -1.3940    -1.1270    -2.5280 ha         1 6GA       0.122000
     28 H5          -0.7570     0.8570    -3.8930 ha         1 6GA       0.134500
     29 H6          -1.6230     1.3880     0.9880 ha         1 6GA       0.122000
     30 H7          -0.9950     3.3610    -0.3920 ha         1 6GA       0.134500
     31 H8           1.6160    -1.5580    -0.4140 hn         1 6GA       0.309500
     32 H9           2.7760    -0.3410     2.0360 h1         1 6GA       0.068200
     33 H10          3.6140    -0.6910     0.5140 h1         1 6GA       0.068200
     34 H11          1.7800     1.8410     2.4160 ha         1 6GA       0.114500
     35 H12          1.4380     4.1840     1.6590 ha         1 6GA       0.115000
     36 H13          1.9250     4.8200    -0.7030 ha         1 6GA       0.114000
     37 H14          2.7530     3.1020    -2.3080 ha         1 6GA       0.115000
     38 H15          3.1020     0.7580    -1.5570 ha         1 6GA       0.114500
     39 H16         -0.0750    -4.5370    -0.1620 hn         1 6GA       0.332500
     40 H17         -1.1860    -6.4060     0.8270 ho         1 6GA       0.444000
@<TRIPOS>BOND
     1     1     2 2   
     2     2     3 1   
     3     2    14 1   
     4     3     4 1   
     5     3     6 1   
     6     3    24 1   
     7     4     5 2   
     8     4    22 1   
     9     6     7 1   
    10     6    25 1   
    11     6    26 1   
    12     7     8 ar  
    13     7    10 ar  
    14     8     9 ar  
    15     8    27 1   
    16     9    12 ar  
    17     9    28 1   
    18    10    11 ar  
    19    10    29 1   
    20    11    12 ar  
    21    11    30 1   
    22    12    13 1   
    23    14    15 1   
    24    14    31 1   
    25    15    16 1   
    26    15    32 1   
    27    15    33 1   
    28    16    17 ar  
    29    16    21 ar  
    30    17    18 ar  
    31    17    34 1   
    32    18    19 ar  
    33    18    35 1   
    34    19    20 ar  
    35    19    36 1   
    36    20    21 ar  
    37    20    37 1   
    38    21    38 1   
    39    22    23 1   
    40    22    39 1   
    41    23    40 1   
@<TRIPOS>SUBSTRUCTURE
     1 6GA         1 TEMP              0 ****  ****    0 ROOT
