@<TRIPOS>MOLECULE
6GA
   40    41     1     0     0
SMALL
abcg2


@<TRIPOS>ATOM
      1 O10          0.2190    -0.9170     2.2090 o          1 6GA      -0.569100
      2 C9           0.3250    -1.2970     1.0550 c          1 6GA       0.607100
      3 C11         -0.7980    -2.0780     0.3780 c3         1 6GA      -0.228700
      4 C12         -0.9060    -3.4310     1.0710 c          1 6GA       0.611100
      5 O15         -1.5320    -3.6060     2.0970 o          1 6GA      -0.537100
      6 C16         -2.1170    -1.3080     0.4880 c3         1 6GA      -0.009100
      7 C17         -2.0260     0.0650    -0.1200 ca         1 6GA      -0.109300
      8 C18         -1.9270     0.2330    -1.5000 ca         1 6GA      -0.077500
      9 C19         -1.8280     1.4940    -2.0690 ca         1 6GA      -0.152000
     10 C22         -2.0220     1.2010     0.6840 ca         1 6GA      -0.077500
     11 C21         -1.9300     2.4740     0.1370 ca         1 6GA      -0.152000
     12 C20         -1.8360     2.5960    -1.2340 ca         1 6GA       0.168000
     13 F29         -1.7400     3.8230    -1.7750 f          1 6GA      -0.180000
     14 N8           1.4060    -1.0870     0.2880 ns         1 6GA      -0.503900
     15 C1           2.5800    -0.3710     0.7220 c3         1 6GA       0.144300
     16 C2           2.7660     0.9610     0.0350 ca         1 6GA      -0.112300
     17 C3           1.6850     1.7190    -0.4030 ca         1 6GA      -0.102500
     18 C4           1.8850     2.9630    -0.9870 ca         1 6GA      -0.108500
     19 C5           3.1700     3.4660    -1.1400 ca         1 6GA      -0.107000
     20 C6           4.2550     2.7140    -0.7090 ca         1 6GA      -0.108500
     21 C7           4.0520     1.4690    -0.1290 ca         1 6GA      -0.102500
     22 N1          -0.2410    -4.4030     0.4230 ns         1 6GA      -0.395400
     23 O2          -0.0730    -5.6190     1.0080 oh         1 6GA      -0.415100
     24 H1          -0.5610    -2.2340    -0.6790 hc         1 6GA       0.056700
     25 H2          -2.8960    -1.8870    -0.0140 hc         1 6GA       0.075700
     26 H3          -2.4020    -1.2300     1.5360 hc         1 6GA       0.075700
     27 H4          -1.9300    -0.6330    -2.1530 ha         1 6GA       0.122000
     28 H5          -1.7540     1.6170    -3.1420 ha         1 6GA       0.134500
     29 H6          -2.0910     1.0950     1.7590 ha         1 6GA       0.122000
     30 H7          -1.9300     3.3520     0.7700 ha         1 6GA       0.134500
     31 H8           1.3940    -1.4150    -0.6650 hn         1 6GA       0.309500
     32 H9           2.5010    -0.2230     1.7990 h1         1 6GA       0.068200
     33 H10          3.4600    -0.9950     0.5570 h1         1 6GA       0.068200
     34 H11          0.6760     1.3410    -0.2940 ha         1 6GA       0.114500
     35 H12          1.0340     3.5420    -1.3220 ha         1 6GA       0.115000
     36 H13          3.3260     4.4350    -1.5980 ha         1 6GA       0.114000
     37 H14          5.2620     3.0930    -0.8310 ha         1 6GA       0.115000
     38 H15          4.9060     0.8850     0.1960 ha         1 6GA       0.114500
     39 H16          0.3560    -4.2240    -0.3720 hn         1 6GA       0.332500
     40 H17         -0.7650    -6.1890     0.6470 ho         1 6GA       0.444000
@<TRIPOS>BOND
     1     1     2 2   
     2     2     3 1   
     3     2    14 1   
     4     3     4 1   
     5     3     6 1   
     6     3    24 1   
     7     4     5 2   
     8     4    22 1   
     9     6     7 1   
    10     6    25 1   
    11     6    26 1   
    12     7     8 ar  
    13     7    10 ar  
    14     8     9 ar  
    15     8    27 1   
    16     9    12 ar  
    17     9    28 1   
    18    10    11 ar  
    19    10    29 1   
    20    11    12 ar  
    21    11    30 1   
    22    12    13 1   
    23    14    15 1   
    24    14    31 1   
    25    15    16 1   
    26    15    32 1   
    27    15    33 1   
    28    16    17 ar  
    29    16    21 ar  
    30    17    18 ar  
    31    17    34 1   
    32    18    19 ar  
    33    18    35 1   
    34    19    20 ar  
    35    19    36 1   
    36    20    21 ar  
    37    20    37 1   
    38    21    38 1   
    39    22    23 1   
    40    22    39 1   
    41    23    40 1   
@<TRIPOS>SUBSTRUCTURE
     1 6GA         1 TEMP              0 ****  ****    0 ROOT
