@<TRIPOS>MOLECULE
6GC
   50    52     1     0     0
SMALL
bcc


@<TRIPOS>ATOM
      1 C1          -1.5460    -2.7550     0.2740 ca         1 6GC      -0.090000
      2 C2           0.8530     2.3660    -1.0420 ca         1 6GC       0.270100
      3 C3          -0.3770     3.0140    -1.0690 ca         1 6GC      -0.309000
      4 C7           1.0190     1.1950    -0.2700 ca         1 6GC      -0.306600
      5 C8          -2.5080     0.6160     0.8970 cc         1 6GC       0.447500
      6 C14         -3.9500    -1.0150     1.4290 c          1 6GC       0.779500
      7 C16         -2.1800    -1.6100    -0.1870 ca         1 6GC       0.011600
      8 C19         -0.9430    -3.3290    -1.9800 ca         1 6GC      -0.094000
      9 C20          2.3500     0.5440    -0.2580 c          1 6GC       0.702700
     10 C24          5.2410    -0.1370     1.0030 c3         1 6GC      -0.100400
     11 C27          7.7610    -0.2150     1.2460 c3         1 6GC      -0.088100
     12 C4          -1.4760     2.4760    -0.4150 ca         1 6GC       0.252100
     13 C5          -1.3520     1.2630     0.2830 ca         1 6GC      -0.220900
     14 C6          -0.1070     0.6570     0.3400 ca         1 6GC       0.009000
     15 N9          -3.3620     1.1610     1.6920 nd         1 6GC      -0.458300
     16 N10         -2.8070    -0.7160     0.7010 n          1 6GC      -0.319500
     17 O12          1.8470     2.8910    -1.7520 oh         1 6GC      -0.502100
     18 N13         -4.2340     0.1750     2.0100 ns         1 6GC      -0.324900
     19 C17         -2.1960    -1.3510    -1.5500 ca         1 6GC       0.144900
     20 C18         -1.5760    -2.1880    -2.4540 ca         1 6GC      -0.163000
     21 N21          2.7510    -0.1750     0.8000 n          1 6GC      -0.453800
     22 O22          3.0800     0.6790    -1.2540 o          1 6GC      -0.653100
     23 C23          3.9850    -0.9450     0.6950 c3         1 6GC       0.095000
     24 C25         -0.9320    -3.6160    -0.6220 ca         1 6GC      -0.139000
     25 C26          2.1860    -0.0960     2.1340 c3         1 6GC       0.086300
     26 C28          6.4910    -1.0090     0.9760 c3         1 6GC      -0.072400
     27 F29         -2.8240    -0.2550    -1.9850 f          1 6GC      -0.127900
     28 H1          -1.5240    -2.9570     1.3370 ha         1 6GC       0.149000
     29 H2          -0.4790     3.9240    -1.6480 ha         1 6GC       0.156000
     30 H3          -0.4560    -3.9950    -2.6800 ha         1 6GC       0.140000
     31 H4           5.3380     0.6720     0.2760 hc         1 6GC       0.050700
     32 H5           5.1500     0.3320     1.9880 hc         1 6GC       0.050700
     33 H6           8.6440    -0.8540     1.2240 hc         1 6GC       0.033700
     34 H7           7.9010     0.5690     0.5000 hc         1 6GC       0.033700
     35 H8           7.7250     0.2650     2.2260 hc         1 6GC       0.033700
     36 H9          -0.0220    -0.2780     0.8780 ha         1 6GC       0.142000
     37 H10         -2.6500     3.8610    -0.9820 ho         1 6GC       0.436000
     38 H11          2.5610     2.2130    -1.7920 ho         1 6GC       0.484000
     39 H12         -5.0120     0.3620     2.6230 hn         1 6GC       0.378500
     40 H13         -1.5950    -1.9540    -3.5110 ha         1 6GC       0.156000
     41 H14          4.0530    -1.3770    -0.3040 h1         1 6GC       0.056700
     42 H15          3.9000    -1.7800     1.3930 h1         1 6GC       0.056700
     43 H16         -0.4390    -4.5070    -0.2570 ha         1 6GC       0.141000
     44 H17          1.6000    -0.9820     2.3830 h1         1 6GC       0.046033
     45 H18          2.9990    -0.0210     2.8560 h1         1 6GC       0.046033
     46 H19          1.5650     0.7870     2.2540 h1         1 6GC       0.046033
     47 H20          6.3930    -1.8070     1.7190 hc         1 6GC       0.037700
     48 H21          6.5670    -1.5060     0.0040 hc         1 6GC       0.037700
     49 O15         -4.5290    -2.0820     1.5010 o          1 6GC      -0.626500
     50 O11         -2.6760     3.0550    -0.4530 oh         1 6GC      -0.462100
@<TRIPOS>BOND
     1     1     7 ar  
     2     1    24 ar  
     3     1    28 1   
     4     2     3 ar  
     5     2     4 ar  
     6     2    17 1   
     7     3    12 ar  
     8     3    29 1   
     9     4     9 1   
    10     4    14 ar  
    11     5    13 1   
    12     5    15 2   
    13     5    16 1   
    14     6    16 1   
    15     6    18 1   
    16     6    49 2   
    17     7    16 1   
    18     7    19 ar  
    19     8    20 ar  
    20     8    24 ar  
    21     8    30 1   
    22     9    21 1   
    23     9    22 2   
    24    10    23 1   
    25    10    26 1   
    26    10    31 1   
    27    10    32 1   
    28    11    26 1   
    29    11    33 1   
    30    11    34 1   
    31    11    35 1   
    32    12    13 ar  
    33    12    50 1   
    34    13    14 ar  
    35    14    36 1   
    36    15    18 1   
    37    17    38 1   
    38    18    39 1   
    39    19    20 ar  
    40    19    27 1   
    41    20    40 1   
    42    21    23 1   
    43    21    25 1   
    44    23    41 1   
    45    23    42 1   
    46    24    43 1   
    47    25    44 1   
    48    25    45 1   
    49    25    46 1   
    50    26    47 1   
    51    26    48 1   
    52    37    50 1   
@<TRIPOS>SUBSTRUCTURE
     1 6GC         1 TEMP              0 ****  ****    0 ROOT
