@<TRIPOS>MOLECULE
6GC
   50    52     1     0     0
SMALL
No Charge or Current Charge


@<TRIPOS>ATOM
      1 C1          -1.6660    -2.9210     0.3380 ca         1 6GC      -0.072000
      2 C2           0.7290     2.5990    -1.0820 ca         1 6GC       0.270100
      3 C3          -0.5330     3.1950    -1.1140 ca         1 6GC      -0.291000
      4 C7           0.9350     1.3830    -0.4090 ca         1 6GC      -0.306600
      5 C8          -2.5900     0.6300     0.7660 cc         1 6GC       0.447500
      6 C14         -3.7670    -1.0750     1.6650 c          1 6GC       0.570000
      7 C16         -2.1650    -1.7000    -0.1680 ca         1 6GC       0.011600
      8 C19         -0.7410    -3.4930    -1.8410 ca         1 6GC      -0.076000
      9 C20          2.3130     0.7660    -0.3820 c          1 6GC       0.635700
     10 C24          5.1990    -0.2460     1.0560 c3         1 6GC      -0.100400
     11 C27          7.7450    -0.4500     1.3700 c3         1 6GC      -0.088100
     12 C4          -1.6250     2.5690    -0.5040 ca         1 6GC       0.252100
     13 C5          -1.4640     1.3180     0.1220 ca         1 6GC      -0.220900
     14 C6          -0.1790     0.7400     0.1720 ca         1 6GC       0.027000
     15 N9          -3.4230     1.2050     1.6350 nd         1 6GC      -0.458300
     16 N10         -2.7580    -0.7630     0.7600 n          1 6GC      -0.252500
     17 O12          1.7560     3.2150    -1.7200 oh         1 6GC      -0.541100
     18 N13         -4.1170     0.1460     2.1460 ns         1 6GC      -0.371400
     19 C17         -1.9080    -1.3790    -1.5250 ca         1 6GC       0.180000
     20 C18         -1.2130    -2.2750    -2.3550 ca         1 6GC      -0.145000
     21 N21          2.6910    -0.0910     0.6790 n          1 6GC      -0.386800
     22 O22          3.0790     0.9860    -1.3140 o          1 6GC      -0.653100
     23 C23          3.9080    -0.9290     0.5510 c3         1 6GC       0.095000
     24 C25         -0.9680    -3.8130    -0.4940 ca         1 6GC      -0.121000
     25 C26          2.1460     0.0780     2.0490 c3         1 6GC       0.086300
     26 C28          6.4530    -1.1270     0.8720 c3         1 6GC      -0.072400
     27 F29         -2.3970    -0.2450    -2.0770 f          1 6GC      -0.163000
     28 H1          -1.8050    -3.1740     1.3860 ha         1 6GC       0.131000
     29 H2          -0.6580     4.1410    -1.6320 ha         1 6GC       0.138000
     30 H3          -0.2000    -4.1850    -2.4840 ha         1 6GC       0.122000
     31 H4           5.3390     0.6970     0.5140 hc         1 6GC       0.050700
     32 H5           5.0940     0.0080     2.1180 hc         1 6GC       0.050700
     33 H6           8.6060    -1.1120     1.2180 hc         1 6GC       0.033700
     34 H7           7.9290     0.4830     0.8250 hc         1 6GC       0.033700
     35 H8           7.6740    -0.2190     2.4400 hc         1 6GC       0.033700
     36 H9          -0.0570    -0.2290     0.6480 ha         1 6GC       0.124000
     37 H10         -2.7400     4.0120    -1.0630 ho         1 6GC       0.475000
     38 H11          2.4820     2.5370    -1.7450 ho         1 6GC       0.523000
     39 H12         -4.8580     0.2260     2.8460 hn         1 6GC       0.492000
     40 H13         -1.0470    -2.0230    -3.3990 ha         1 6GC       0.138000
     41 H14          4.0380    -1.2190    -0.5000 h1         1 6GC       0.056700
     42 H15          3.7510    -1.8550     1.1200 h1         1 6GC       0.056700
     43 H16         -0.5940    -4.7520    -0.0900 ha         1 6GC       0.123000
     44 H17          1.4090    -0.7080     2.2560 h1         1 6GC       0.046033
     45 H18          2.9470     0.0020     2.7930 h1         1 6GC       0.046033
     46 H19          1.6730     1.0620     2.1580 h1         1 6GC       0.046033
     47 H20          6.3160    -2.0730     1.4110 hc         1 6GC       0.037700
     48 H21          6.5690    -1.3780    -0.1900 hc         1 6GC       0.037700
     49 O15         -4.2540    -2.1590     1.9420 o          1 6GC      -0.551000
     50 O11         -2.8480     3.1620    -0.5890 oh         1 6GC      -0.501100
@<TRIPOS>BOND
     1     1     7 ar  
     2     1    24 ar  
     3     1    28 1   
     4     2     3 ar  
     5     2     4 ar  
     6     2    17 1   
     7     3    12 ar  
     8     3    29 1   
     9     4     9 1   
    10     4    14 ar  
    11     5    13 1   
    12     5    15 2   
    13     5    16 1   
    14     6    16 1   
    15     6    18 1   
    16     6    49 2   
    17     7    16 1   
    18     7    19 ar  
    19     8    20 ar  
    20     8    24 ar  
    21     8    30 1   
    22     9    21 1   
    23     9    22 2   
    24    10    23 1   
    25    10    26 1   
    26    10    31 1   
    27    10    32 1   
    28    11    26 1   
    29    11    33 1   
    30    11    34 1   
    31    11    35 1   
    32    12    13 ar  
    33    12    50 1   
    34    13    14 ar  
    35    14    36 1   
    36    15    18 1   
    37    17    38 1   
    38    18    39 1   
    39    19    20 ar  
    40    19    27 1   
    41    20    40 1   
    42    21    23 1   
    43    21    25 1   
    44    23    41 1   
    45    23    42 1   
    46    24    43 1   
    47    25    44 1   
    48    25    45 1   
    49    25    46 1   
    50    26    47 1   
    51    26    48 1   
    52    37    50 1   
@<TRIPOS>SUBSTRUCTURE
     1 6GC         1 TEMP              0 ****  ****    0 ROOT
