@<TRIPOS>MOLECULE
6GD
   47    50     1     0     0
SMALL
No Charge or Current Charge


@<TRIPOS>ATOM
      1 C10         -2.3090     1.9490    -1.4300 ca         1 6GD      -0.102000
      2 N12         -0.4220     3.3460    -1.0790 nb         1 6GD      -0.696000
      3 C13          0.7950     3.5520    -0.5350 ca         1 6GD       0.409900
      4 C15          0.8160     1.3750     0.4790 ca         1 6GD       0.390000
      5 C17          2.7480    -0.0710     1.2610 cc         1 6GD       0.092900
      6 C20          4.8340    -0.6270     0.7270 ca         1 6GD      -0.079000
      7 C21          5.9940    -0.7380    -0.0580 ca         1 6GD      -0.054000
      8 C22          5.9830    -0.2100    -1.3670 ca         1 6GD      -0.130000
      9 C26          3.7150    -0.0010     0.2200 ca         1 6GD      -0.118000
     10 C28         -1.1400    -0.0840     0.1030 ca         1 6GD       0.021000
     11 C01         -5.2810    -0.4230     1.1280 c3         1 6GD      -0.085100
     12 C02         -4.2800    -1.5990     1.3180 c3         1 6GD      -0.212000
     13 C03         -3.3420    -1.2830     2.5200 c3         1 6GD      -0.085100
     14 C04         -5.0740    -2.9030     1.6180 c3         1 6GD      -0.085100
     15 O06         -2.2840    -2.8880     0.0660 o          1 6GD      -0.519500
     16 O07         -4.2350    -2.0200    -1.3340 o          1 6GD      -0.519500
     17 C08         -2.4120    -0.2820    -0.4700 ca         1 6GD      -0.262500
     18 C09         -2.9940     0.7400    -1.2410 ca         1 6GD      -0.025000
     19 C11         -1.0430     2.1660    -0.8610 ca         1 6GD       0.336000
     20 C14          1.4410     2.5970     0.2470 ca         1 6GD      -0.260000
     21 N16          1.4620     0.4400     1.2890 nu         1 6GD      -0.836000
     22 N18          3.3410    -0.7490     2.3170 na         1 6GD       0.004500
     23 N19          4.6650    -1.1120     2.0290 nc         1 6GD      -0.256400
     24 C23          4.8210     0.4100    -1.8750 ca         1 6GD       0.155000
     25 F24          4.8190     0.9000    -3.1340 f          1 6GD      -0.179000
     26 C25          3.6630     0.5180    -1.0830 ca         1 6GD      -0.103000
     27 C27         -0.4570     1.1410    -0.0810 ca         1 6GD      -0.153000
     28 H1          -2.7640     2.7330    -2.0290 ha         1 6GD       0.140000
     29 H2           1.2600     4.5180    -0.7320 h4         1 6GD       0.023100
     30 H3           6.8830    -1.2280     0.3340 ha         1 6GD       0.134000
     31 H4           6.8700    -0.2870    -1.9920 ha         1 6GD       0.133000
     32 H5          -0.6900    -0.8860     0.6840 ha         1 6GD       0.124000
     33 H6          -5.9070    -0.2970     2.0200 hc         1 6GD       0.053033
     34 H7          -4.7570     0.5260     0.9590 hc         1 6GD       0.053033
     35 H8          -5.9490    -0.6000     0.2760 hc         1 6GD       0.053033
     36 H9          -3.9200    -1.1830     3.4470 hc         1 6GD       0.053033
     37 H10         -2.6050    -2.0810     2.6730 hc         1 6GD       0.053033
     38 H11         -2.8000    -0.3420     2.3680 hc         1 6GD       0.053033
     39 H12         -5.7530    -3.1520     0.7940 hc         1 6GD       0.053033
     40 H13         -4.3970    -3.7540     1.7670 hc         1 6GD       0.053033
     41 H14         -5.6780    -2.7940     2.5270 hc         1 6GD       0.053033
     42 H15         -3.9740     0.6040    -1.6970 ha         1 6GD       0.140000
     43 H16          2.4150     2.8120     0.6720 ha         1 6GD       0.141000
     44 H17          0.8470     0.0080     1.9810 hn         1 6GD       0.510000
     45 H18          2.9230    -0.9620     3.2150 hn         1 6GD       0.374000
     46 H19          2.7660     0.9790    -1.4820 ha         1 6GD       0.142000
     47 S05         -3.2820    -1.8490    -0.2280 sy         1 6GD       1.011500
@<TRIPOS>BOND
     1     1    18 ar  
     2     1    19 ar  
     3     1    28 1   
     4     2     3 ar  
     5     2    19 ar  
     6     3    20 ar  
     7     3    29 1   
     8     4    20 ar  
     9     4    21 1   
    10     4    27 ar  
    11     5     9 2   
    12     5    21 1   
    13     5    22 1   
    14     6     7 ar  
    15     6     9 ar  
    16     6    23 2   
    17     7     8 ar  
    18     7    30 1   
    19     8    24 ar  
    20     8    31 1   
    21     9    26 ar  
    22    10    17 ar  
    23    10    27 ar  
    24    10    32 1   
    25    11    12 1   
    26    11    33 1   
    27    11    34 1   
    28    11    35 1   
    29    12    13 1   
    30    12    14 1   
    31    12    47 1   
    32    13    36 1   
    33    13    37 1   
    34    13    38 1   
    35    14    39 1   
    36    14    40 1   
    37    14    41 1   
    38    15    47 2   
    39    16    47 2   
    40    17    18 ar  
    41    17    47 1   
    42    18    42 1   
    43    19    27 ar  
    44    20    43 1   
    45    21    44 1   
    46    22    23 1   
    47    22    45 1   
    48    24    25 1   
    49    24    26 ar  
    50    26    46 1   
@<TRIPOS>SUBSTRUCTURE
     1 6GD         1 TEMP              0 ****  ****    0 ROOT
