@<TRIPOS>MOLECULE
6GD
   47    50     1     0     0
SMALL
abcg2


@<TRIPOS>ATOM
      1 C10         -2.5390     2.0660    -1.1630 ca         1 6GD      -0.102000
      2 N12         -0.5000     3.2580    -1.0270 nb         1 6GD      -0.696000
      3 C13          0.7660     3.2790    -0.6920 ca         1 6GD       0.409900
      4 C15          0.8150     1.0180     0.1110 ca         1 6GD       0.390000
      5 C17          2.8010    -0.1270     0.8970 cc         1 6GD       0.092900
      6 C20          5.0130    -0.2110     0.9060 ca         1 6GD      -0.079000
      7 C21          6.3270    -0.1660     0.3860 ca         1 6GD      -0.054000
      8 C22          6.4810     0.0570    -0.9510 ca         1 6GD      -0.130000
      9 C26          3.8970    -0.0270     0.0440 ca         1 6GD      -0.118000
     10 C28         -1.3570    -0.2060    -0.0680 ca         1 6GD       0.021000
     11 C01         -5.2930    -0.3020     1.5020 c3         1 6GD      -0.085100
     12 C02         -4.4240    -1.5510     1.4550 c3         1 6GD      -0.212000
     13 C03         -3.3330    -1.5090     2.5170 c3         1 6GD      -0.085100
     14 C04         -5.2740    -2.8130     1.5970 c3         1 6GD      -0.085100
     15 O06         -2.7110    -2.8100    -0.1730 o          1 6GD      -0.519500
     16 O07         -4.6970    -1.6690    -1.2100 o          1 6GD      -0.519500
     17 C08         -2.6830    -0.1990    -0.4160 ca         1 6GD      -0.262500
     18 C09         -3.2870     0.9400    -0.9790 ca         1 6GD      -0.025000
     19 C11         -1.1710     2.1080    -0.8050 ca         1 6GD       0.336000
     20 C14          1.4700     2.2120    -0.1270 ca         1 6GD      -0.260000
     21 N16          1.4390    -0.0600     0.6630 nu         1 6GD      -0.836000
     22 N18          3.3120    -0.3490     2.1190 na         1 6GD       0.004500
     23 N19          4.6290    -0.4220     2.1680 nc         1 6GD      -0.256400
     24 C23          5.3480     0.2290    -1.7860 ca         1 6GD       0.155000
     25 F24          5.5880     0.4330    -3.0940 f          1 6GD      -0.179000
     26 C25          4.0650     0.1950    -1.3400 ca         1 6GD      -0.103000
     27 C27         -0.5730     0.9490    -0.2420 ca         1 6GD      -0.153000
     28 H1          -2.9770     2.9540    -1.5990 ha         1 6GD       0.140000
     29 H2           1.2980     4.2080    -0.8690 h4         1 6GD       0.023100
     30 H3           7.1850    -0.3020     1.0310 ha         1 6GD       0.134000
     31 H4           7.4670     0.1050    -1.3930 ha         1 6GD       0.133000
     32 H5          -0.9330    -1.1190     0.3290 ha         1 6GD       0.124000
     33 H6          -5.8190    -0.2890     2.4580 hc         1 6GD       0.053033
     34 H7          -4.7060     0.6150     1.4480 hc         1 6GD       0.053033
     35 H8          -6.0440    -0.2890     0.7130 hc         1 6GD       0.053033
     36 H9          -3.8110    -1.4800     3.4970 hc         1 6GD       0.053033
     37 H10         -2.6960    -2.3910     2.4850 hc         1 6GD       0.053033
     38 H11         -2.7080    -0.6200     2.4370 hc         1 6GD       0.053033
     39 H12         -6.0560    -2.8700     0.8400 hc         1 6GD       0.053033
     40 H13         -4.6730    -3.7210     1.5540 hc         1 6GD       0.053033
     41 H14         -5.7610    -2.7880     2.5730 hc         1 6GD       0.053033
     42 H15         -4.3280     0.9250    -1.2730 ha         1 6GD       0.140000
     43 H16          2.5110     2.3460     0.1260 ha         1 6GD       0.141000
     44 H17          0.8940    -0.8640     0.9280 hn         1 6GD       0.510000
     45 H18          2.7750    -0.4750     2.9660 hn         1 6GD       0.374000
     46 H19          3.2270     0.3230    -2.0130 ha         1 6GD       0.142000
     47 S05         -3.6410    -1.6780    -0.1970 sy         1 6GD       1.011500
@<TRIPOS>BOND
     1     1    18 ar  
     2     1    19 ar  
     3     1    28 1   
     4     2     3 ar  
     5     2    19 ar  
     6     3    20 ar  
     7     3    29 1   
     8     4    20 ar  
     9     4    21 1   
    10     4    27 ar  
    11     5     9 2   
    12     5    21 1   
    13     5    22 1   
    14     6     7 ar  
    15     6     9 ar  
    16     6    23 2   
    17     7     8 ar  
    18     7    30 1   
    19     8    24 ar  
    20     8    31 1   
    21     9    26 ar  
    22    10    17 ar  
    23    10    27 ar  
    24    10    32 1   
    25    11    12 1   
    26    11    33 1   
    27    11    34 1   
    28    11    35 1   
    29    12    13 1   
    30    12    14 1   
    31    12    47 1   
    32    13    36 1   
    33    13    37 1   
    34    13    38 1   
    35    14    39 1   
    36    14    40 1   
    37    14    41 1   
    38    15    47 2   
    39    16    47 2   
    40    17    18 ar  
    41    17    47 1   
    42    18    42 1   
    43    19    27 ar  
    44    20    43 1   
    45    21    44 1   
    46    22    23 1   
    47    22    45 1   
    48    24    25 1   
    49    24    26 ar  
    50    26    46 1   
@<TRIPOS>SUBSTRUCTURE
     1 6GD         1 TEMP              0 ****  ****    0 ROOT
