@<TRIPOS>MOLECULE
6GE
   39    41     1     0     0
SMALL
No Charge or Current Charge


@<TRIPOS>ATOM
      1 N1          -1.3270     0.1580     0.4870 nu         1 6GE      -0.986000
      2 C4          -5.1970     1.3610    -0.6700 ca         1 6GE      -0.211000
      3 C5          -4.6560     0.1650    -1.1590 ca         1 6GE       0.155100
      4 C6          -3.3710    -0.2340    -0.7720 ca         1 6GE      -0.161000
      5 C7          -2.6170     0.5520     0.1150 ca         1 6GE       0.315000
      6 C8          -0.6700    -1.0740     0.5170 ca         1 6GE       0.398000
      7 C10         -0.7380    -3.4530     0.8540 ca         1 6GE       0.411900
      8 C13          3.5070    -1.4700    -0.0380 ca         1 6GE      -0.028000
      9 C15          1.5300    -0.0510     0.0460 ca         1 6GE       0.029000
     10 C17          4.4160     1.8140     1.1450 c3         1 6GE      -0.337100
     11 O3           3.0920     2.3030    -1.0640 o          1 6GE      -0.525000
     12 O2           5.1710     0.8130    -1.1570 o          1 6GE      -0.525000
     13 C14          2.9190    -0.1960    -0.1380 ca         1 6GE      -0.284500
     14 C12          2.7050    -2.5880     0.2340 ca         1 6GE      -0.103000
     15 C16          0.7240    -1.1800     0.3310 ca         1 6GE      -0.161000
     16 C11          1.3170    -2.4620     0.4180 ca         1 6GE       0.340000
     17 N2           0.5920    -3.5730     0.6740 nb         1 6GE      -0.704000
     18 C9          -1.4000    -2.2290     0.7880 ca         1 6GE      -0.271000
     19 C2          -3.1510     1.7690     0.6000 ca         1 6GE      -0.136300
     20 C1          -2.3600     2.6650     1.5530 c3         1 6GE      -0.042800
     21 O1          -5.3740    -0.6100    -2.0180 oh         1 6GE      -0.529100
     22 C3          -4.4460     2.1630     0.2050 ca         1 6GE      -0.051000
     23 H1          -0.7670     0.9230     0.8550 hn         1 6GE       0.503000
     24 H2          -6.1930     1.6790    -0.9660 ha         1 6GE       0.119000
     25 H3          -2.9580    -1.1510    -1.1780 ha         1 6GE       0.143000
     26 H4          -1.2850    -4.3700     1.0680 h4         1 6GE       0.019100
     27 H5           4.5800    -1.6020    -0.1730 ha         1 6GE       0.135000
     28 H6           1.0850     0.9380    -0.0410 ha         1 6GE       0.129000
     29 H7           3.5060     2.0560     1.7020 h1         1 6GE       0.101700
     30 H8           4.9680     1.0060     1.6370 h1         1 6GE       0.101700
     31 H9           5.0480     2.7010     1.0290 h1         1 6GE       0.101700
     32 H10          3.1640    -3.5690     0.3040 ha         1 6GE       0.138000
     33 H11         -2.4680    -2.1890     0.9710 ha         1 6GE       0.137000
     34 H12         -1.4550     3.0540     1.0700 hc         1 6GE       0.043367
     35 H13         -2.9490     3.5290     1.8840 hc         1 6GE       0.043367
     36 H14         -2.0560     2.1160     2.4530 hc         1 6GE       0.043367
     37 H15         -6.2400    -0.1750    -2.1760 ho         1 6GE       0.468000
     38 H16         -4.8730     3.0930     0.5740 ha         1 6GE       0.116000
     39 S            3.9400     1.2520    -0.4880 sy         1 6GE       1.061500
@<TRIPOS>BOND
     1     1     5 1   
     2     1     6 1   
     3     1    23 1   
     4     2     3 ar  
     5     2    22 ar  
     6     2    24 1   
     7     3     4 ar  
     8     3    21 1   
     9     4     5 ar  
    10     4    25 1   
    11     5    19 ar  
    12     6    15 ar  
    13     6    18 ar  
    14     7    17 ar  
    15     7    18 ar  
    16     7    26 1   
    17     8    13 ar  
    18     8    14 ar  
    19     8    27 1   
    20     9    13 ar  
    21     9    15 ar  
    22     9    28 1   
    23    10    29 1   
    24    10    30 1   
    25    10    31 1   
    26    10    39 1   
    27    11    39 2   
    28    12    39 2   
    29    13    39 1   
    30    14    16 ar  
    31    14    32 1   
    32    15    16 ar  
    33    16    17 ar  
    34    18    33 1   
    35    19    20 1   
    36    19    22 ar  
    37    20    34 1   
    38    20    35 1   
    39    20    36 1   
    40    21    37 1   
    41    22    38 1   
@<TRIPOS>SUBSTRUCTURE
     1 6GE         1 TEMP              0 ****  ****    0 ROOT
