@<TRIPOS>MOLECULE
6GE
   39    41     1     0     0
SMALL
abcg2


@<TRIPOS>ATOM
      1 N1          -1.2520     0.3630     0.0710 nu         1 6GE      -0.986000
      2 C4          -5.3110     1.1950    -0.4720 ca         1 6GE      -0.211000
      3 C5          -4.7040     0.1940    -1.2240 ca         1 6GE       0.155100
      4 C6          -3.3530    -0.0740    -1.0420 ca         1 6GE      -0.161000
      5 C7          -2.6230     0.6340    -0.0940 ca         1 6GE       0.315000
      6 C8          -0.7050    -0.8570     0.3060 ca         1 6GE       0.398000
      7 C10         -0.8180    -3.1880     0.8760 ca         1 6GE       0.411900
      8 C13          3.4980    -1.4660     0.2620 ca         1 6GE      -0.028000
      9 C15          1.6060     0.0130    -0.0730 ca         1 6GE       0.029000
     10 C17          4.6070     1.7450     1.0500 c3         1 6GE      -0.337100
     11 O3           3.2960     2.1460    -1.1990 o          1 6GE      -0.525000
     12 O2           5.2100     0.5140    -1.1970 o          1 6GE      -0.525000
     13 C14          2.9570    -0.2100    -0.0710 ca         1 6GE      -0.284500
     14 C12          2.6520    -2.4860     0.5830 ca         1 6GE      -0.103000
     15 C16          0.7200    -1.0250     0.2730 ca         1 6GE      -0.161000
     16 C11          1.2480    -2.3060     0.5870 ca         1 6GE       0.340000
     17 N2           0.4810    -3.3750     0.8850 nb         1 6GE      -0.704000
     18 C9          -1.4600    -1.9800     0.6010 ca         1 6GE      -0.271000
     19 C2          -3.2140     1.6420     0.6760 ca         1 6GE      -0.136300
     20 C1          -2.4250     2.4090     1.6960 c3         1 6GE      -0.042800
     21 O1          -5.3660    -0.5310    -2.1480 oh         1 6GE      -0.529100
     22 C3          -4.5610     1.9030     0.4540 ca         1 6GE      -0.051000
     23 H1          -0.6530     1.1680     0.1460 hn         1 6GE       0.503000
     24 H2          -6.3620     1.4230    -0.6050 ha         1 6GE       0.119000
     25 H3          -2.8720    -0.8320    -1.6470 ha         1 6GE       0.143000
     26 H4          -1.4300    -4.0510     1.1180 h4         1 6GE       0.019100
     27 H5           4.5680    -1.6260     0.2570 ha         1 6GE       0.135000
     28 H6           1.2360     0.9870    -0.3650 ha         1 6GE       0.129000
     29 H7           3.7540     2.1380     1.5970 h1         1 6GE       0.101700
     30 H8           5.0900     0.9530     1.6180 h1         1 6GE       0.101700
     31 H9           5.3210     2.5420     0.8440 h1         1 6GE       0.101700
     32 H10          3.0390    -3.4660     0.8340 ha         1 6GE       0.138000
     33 H11         -2.5380    -1.9390     0.6500 ha         1 6GE       0.137000
     34 H12         -1.6790     3.0610     1.2340 hc         1 6GE       0.043367
     35 H13         -3.0790     3.0420     2.2920 hc         1 6GE       0.043367
     36 H14         -1.8910     1.7460     2.3790 hc         1 6GE       0.043367
     37 H15         -6.2870    -0.2530    -2.1960 ho         1 6GE       0.468000
     38 H16         -5.0480     2.6780     1.0330 ha         1 6GE       0.116000
     39 S            4.0600     1.1040    -0.5160 sy         1 6GE       1.061500
@<TRIPOS>BOND
     1     1     5 1   
     2     1     6 1   
     3     1    23 1   
     4     2     3 ar  
     5     2    22 ar  
     6     2    24 1   
     7     3     4 ar  
     8     3    21 1   
     9     4     5 ar  
    10     4    25 1   
    11     5    19 ar  
    12     6    15 ar  
    13     6    18 ar  
    14     7    17 ar  
    15     7    18 ar  
    16     7    26 1   
    17     8    13 ar  
    18     8    14 ar  
    19     8    27 1   
    20     9    13 ar  
    21     9    15 ar  
    22     9    28 1   
    23    10    29 1   
    24    10    30 1   
    25    10    31 1   
    26    10    39 1   
    27    11    39 2   
    28    12    39 2   
    29    13    39 1   
    30    14    16 ar  
    31    14    32 1   
    32    15    16 ar  
    33    16    17 ar  
    34    18    33 1   
    35    19    20 1   
    36    19    22 ar  
    37    20    34 1   
    38    20    35 1   
    39    20    36 1   
    40    21    37 1   
    41    22    38 1   
@<TRIPOS>SUBSTRUCTURE
     1 6GE         1 TEMP              0 ****  ****    0 ROOT
