@<TRIPOS>MOLECULE
6GF
   52    55     1     0     0
SMALL
bcc


@<TRIPOS>ATOM
      1 C10         -1.0600    -0.2880    -0.3490 ca         1 6GF       0.761200
      2 C13         -4.0680    -1.1290     0.1300 ca         1 6GF       0.394100
      3 C15         -5.5020    -3.0400     0.0390 ca         1 6GF      -0.089000
      4 C17         -4.3880    -2.3580     2.0250 ca         1 6GF       0.406700
      5 C20         -1.4290     4.2500    -1.2210 ca         1 6GF       0.406700
      6 C21         -0.6190     5.1220    -0.5090 ca         1 6GF      -0.248300
      7 C22         -0.2530     4.7650     0.7800 ca         1 6GF      -0.089000
      8 C01          7.7030    -0.4040     0.4370 c3         1 6GF       0.125700
      9 C02          5.3740    -0.0390     0.6980 ca         1 6GF       0.153100
     10 C07          4.3470     0.6230     1.3760 ca         1 6GF      -0.205000
     11 C06          3.0280     0.3910     1.0430 ca         1 6GF      -0.056000
     12 C03          5.0450    -0.9410    -0.3120 ca         1 6GF      -0.205000
     13 C04          3.7140    -1.1640    -0.6310 ca         1 6GF      -0.056000
     14 C05          2.6780    -0.5050     0.0270 cp         1 6GF      -0.191500
     15 C08          1.2740    -0.7590    -0.3570 cp         1 6GF       0.578800
     16 C11          0.2370     0.0340     0.1010 ca         1 6GF      -0.478600
     17 N01          1.0660    -1.7850    -1.1880 nb         1 6GF      -0.822000
     18 C09         -0.1930    -2.0010    -1.5610 ca         1 6GF       0.935900
     19 N02         -0.4170    -3.0600    -2.3770 nv         1 6GF      -0.946500
     20 N03         -1.2620    -1.3050    -1.1840 nb         1 6GF      -0.854000
     21 N04         -2.1490     0.4150     0.0300 nh         1 6GF      -0.752300
     22 C18         -2.0590     1.4480     1.0290 c3         1 6GF       0.192500
     23 C19         -1.5160     2.7550     0.4980 ca         1 6GF       0.394100
     24 N06         -1.8690     3.0960    -0.7360 nb         1 6GF      -0.667500
     25 C23         -0.7090     3.5610     1.2930 ca         1 6GF      -0.237300
     26 C12         -3.4380     0.0800    -0.5200 c3         1 6GF       0.192500
     27 N05         -3.8170    -1.3240     1.4180 nb         1 6GF      -0.667500
     28 C16         -5.2400    -3.2460     1.3860 ca         1 6GF      -0.248300
     29 C14         -4.9040    -1.9670    -0.6010 ca         1 6GF      -0.237300
     30 H1          -6.1550    -3.7090    -0.5060 ha         1 6GF       0.136000
     31 H2          -4.1570    -2.4870     3.0760 h4         1 6GF       0.017100
     32 H3          -1.7360     4.4950    -2.2320 h4         1 6GF       0.017100
     33 H4          -0.2840     6.0480    -0.9560 ha         1 6GF       0.141000
     34 H5           0.3830     5.4090     1.3730 ha         1 6GF       0.136000
     35 H6           8.6130    -0.0330     0.9010 h1         1 6GF       0.041367
     36 H7           7.6570    -1.4880     0.5690 h1         1 6GF       0.041367
     37 H8           7.7350    -0.1790    -0.6310 h1         1 6GF       0.041367
     38 H9           4.5910     1.3180     2.1700 ha         1 6GF       0.139000
     39 H10          2.2700     0.9200     1.6050 ha         1 6GF       0.142000
     40 H11          5.8060    -1.4770    -0.8620 ha         1 6GF       0.139000
     41 H12          3.4780    -1.8650    -1.4190 ha         1 6GF       0.142000
     42 H13          0.4200     0.8800     0.7410 ha         1 6GF       0.147000
     43 H14          0.3710    -3.4470    -2.8670 hn         1 6GF       0.427800
     44 H15         -1.3000    -3.1000    -2.8560 hn         1 6GF       0.427800
     45 H16         -3.0610     1.6180     1.4260 h1         1 6GF       0.068700
     46 H17         -1.4660     1.1110     1.8830 h1         1 6GF       0.068700
     47 H18         -0.4370     3.2470     2.2930 ha         1 6GF       0.140500
     48 H19         -3.3620    -0.0800    -1.5950 h1         1 6GF       0.068700
     49 H20         -4.0950     0.9410    -0.3820 h1         1 6GF       0.068700
     50 H21         -5.6790    -4.0710     1.9290 ha         1 6GF       0.141000
     51 H22         -5.0770    -1.7800    -1.6530 ha         1 6GF       0.140500
     52 O01          6.6270     0.2500     1.0830 os         1 6GF      -0.318900
@<TRIPOS>BOND
     1     1    16 ar  
     2     1    20 ar  
     3     1    21 1   
     4     2    26 1   
     5     2    27 ar  
     6     2    29 ar  
     7     3    28 ar  
     8     3    29 ar  
     9     3    30 1   
    10     4    27 ar  
    11     4    28 ar  
    12     4    31 1   
    13     5     6 ar  
    14     5    24 ar  
    15     5    32 1   
    16     6     7 ar  
    17     6    33 1   
    18     7    25 ar  
    19     7    34 1   
    20     8    35 1   
    21     8    36 1   
    22     8    37 1   
    23     8    52 1   
    24     9    10 ar  
    25     9    12 ar  
    26     9    52 1   
    27    10    11 ar  
    28    10    38 1   
    29    11    14 ar  
    30    11    39 1   
    31    12    13 ar  
    32    12    40 1   
    33    13    14 ar  
    34    13    41 1   
    35    14    15 1   
    36    15    16 ar  
    37    15    17 ar  
    38    16    42 1   
    39    17    18 ar  
    40    18    19 1   
    41    18    20 ar  
    42    19    43 1   
    43    19    44 1   
    44    21    22 1   
    45    21    26 1   
    46    22    23 1   
    47    22    45 1   
    48    22    46 1   
    49    23    24 ar  
    50    23    25 ar  
    51    25    47 1   
    52    26    48 1   
    53    26    49 1   
    54    28    50 1   
    55    29    51 1   
@<TRIPOS>SUBSTRUCTURE
     1 6GF         1 TEMP              0 ****  ****    0 ROOT
