@<TRIPOS>MOLECULE
6GF
   52    55     1     0     0
SMALL
No Charge or Current Charge


@<TRIPOS>ATOM
      1 C10         -1.0750    -0.0720    -0.5350 ca         1 6GF       0.432900
      2 C13         -4.0790    -1.1900     0.5380 ca         1 6GF       0.328800
      3 C15         -4.1000    -3.5860     0.9530 ca         1 6GF      -0.071000
      4 C17         -5.3350    -2.0110     2.3180 ca         1 6GF       0.341400
      5 C20         -2.4660     4.9390    -0.9670 ca         1 6GF       0.341400
      6 C21         -1.1450     5.3810    -1.1510 ca         1 6GF      -0.165000
      7 C22         -0.0880     4.6100    -0.6440 ca         1 6GF      -0.071000
      8 C01          7.7390    -0.9260     1.0120 c3         1 6GF       0.148900
      9 C02          5.2830    -0.7370     1.1730 ca         1 6GF       0.153100
     10 C07          4.1630    -0.5650     1.9960 ca         1 6GF      -0.187000
     11 C06          2.8690    -0.5380     1.4490 ca         1 6GF      -0.038000
     12 C03          5.1020    -0.8860    -0.2170 ca         1 6GF      -0.187000
     13 C04          3.8090    -0.8600    -0.7670 ca         1 6GF      -0.038000
     14 C05          2.6600    -0.6810     0.0520 cp         1 6GF      -0.191500
     15 C08          1.2780    -0.6520    -0.5410 cp         1 6GF       0.250500
     16 C11          0.1750    -0.0470     0.1030 ca         1 6GF      -0.330000
     17 N01          1.1060    -1.2270    -1.7470 nb         1 6GF      -0.296000
     18 C09         -0.1270    -1.2090    -2.2600 ca         1 6GF       0.409900
     19 N02         -0.2810    -1.7990    -3.4650 nv         1 6GF      -1.056900
     20 N03         -1.2250    -0.6700    -1.7300 nb         1 6GF      -0.328000
     21 N04         -2.2250     0.5160     0.0430 nh         1 6GF      -0.752300
     22 C18         -2.1310     1.7370     0.9020 c3         1 6GF       0.192500
     23 C19         -1.7540     3.0390     0.1730 ca         1 6GF       0.328800
     24 N06         -2.7740     3.7930    -0.3170 nb         1 6GF      -0.667500
     25 C23         -0.4030     3.4190     0.0300 ca         1 6GF      -0.154000
     26 C12         -3.6050     0.0250    -0.2740 c3         1 6GF       0.192500
     27 N05         -4.9110    -0.9530     1.5880 nb         1 6GF      -0.667500
     28 C16         -4.9560    -3.3340     2.0360 ca         1 6GF      -0.165000
     29 C14         -3.6570    -2.4910     0.1940 ca         1 6GF      -0.154000
     30 H1          -3.7880    -4.5990     0.7090 ha         1 6GF       0.118000
     31 H2          -5.9990    -1.7890     3.1530 h4         1 6GF       0.017100
     32 H3          -3.3040     5.5200    -1.3500 h4         1 6GF       0.017100
     33 H4          -0.9520     6.3100    -1.6800 ha         1 6GF       0.123000
     34 H5           0.9460     4.9250    -0.7700 ha         1 6GF       0.118000
     35 H6           8.6090    -0.9100     1.6790 h1         1 6GF       0.041367
     36 H7           7.7350    -1.8870     0.4820 h1         1 6GF       0.041367
     37 H8           7.8570    -0.1190     0.2780 h1         1 6GF       0.041367
     38 H9           4.2970    -0.4560     3.0690 ha         1 6GF       0.121000
     39 H10          2.0260    -0.4210     2.1250 ha         1 6GF       0.124000
     40 H11          5.9470    -1.0210    -0.8850 ha         1 6GF       0.121000
     41 H12          3.7020    -0.9710    -1.8440 ha         1 6GF       0.124000
     42 H13          0.2930     0.4230     1.0700 ha         1 6GF       0.129000
     43 H14          0.5540    -2.0190    -4.0030 hn         1 6GF       0.483000
     44 H15         -1.1300    -1.6110    -3.9910 hn         1 6GF       0.483000
     45 H16         -3.0910     1.9050     1.4080 h1         1 6GF       0.068700
     46 H17         -1.4150     1.5730     1.7170 h1         1 6GF       0.068700
     47 H18          0.3890     2.7980     0.4360 ha         1 6GF       0.122500
     48 H19         -3.6890    -0.2240    -1.3400 h1         1 6GF       0.068700
     49 H20         -4.3270     0.8390    -0.1230 h1         1 6GF       0.068700
     50 H21         -5.3260    -4.1480     2.6540 ha         1 6GF       0.123000
     51 H22         -2.9930    -2.6440    -0.6520 ha         1 6GF       0.122500
     52 O01          6.5270    -0.7550     1.7690 os         1 6GF      -0.342100
@<TRIPOS>BOND
     1     1    16 ar  
     2     1    20 ar  
     3     1    21 1   
     4     2    26 1   
     5     2    27 ar  
     6     2    29 ar  
     7     3    28 ar  
     8     3    29 ar  
     9     3    30 1   
    10     4    27 ar  
    11     4    28 ar  
    12     4    31 1   
    13     5     6 ar  
    14     5    24 ar  
    15     5    32 1   
    16     6     7 ar  
    17     6    33 1   
    18     7    25 ar  
    19     7    34 1   
    20     8    35 1   
    21     8    36 1   
    22     8    37 1   
    23     8    52 1   
    24     9    10 ar  
    25     9    12 ar  
    26     9    52 1   
    27    10    11 ar  
    28    10    38 1   
    29    11    14 ar  
    30    11    39 1   
    31    12    13 ar  
    32    12    40 1   
    33    13    14 ar  
    34    13    41 1   
    35    14    15 1   
    36    15    16 ar  
    37    15    17 ar  
    38    16    42 1   
    39    17    18 ar  
    40    18    19 1   
    41    18    20 ar  
    42    19    43 1   
    43    19    44 1   
    44    21    22 1   
    45    21    26 1   
    46    22    23 1   
    47    22    45 1   
    48    22    46 1   
    49    23    24 ar  
    50    23    25 ar  
    51    25    47 1   
    52    26    48 1   
    53    26    49 1   
    54    28    50 1   
    55    29    51 1   
@<TRIPOS>SUBSTRUCTURE
     1 6GF         1 TEMP              0 ****  ****    0 ROOT
