@<TRIPOS>MOLECULE
6GG
   79    83     1     0     0
SMALL
abcg2


@<TRIPOS>ATOM
      1 O28         13.1950     0.2330     1.0860 o          1 6GG      -0.741500
      2 C25         13.3200     0.1240    -0.1500 c          1 6GG       0.716000
      3 O26         14.3920    -0.0150    -0.7750 o          1 6GG      -0.741500
      4 C24         12.0470     0.1610    -1.0140 c3         1 6GG      -0.201400
      5 C23         10.7520     0.2970    -0.2380 c3         1 6GG      -0.125400
      6 C21          9.5130     0.3420    -1.1110 c          1 6GG       0.588100
      7 O22          9.5460     0.2900    -2.3340 o          1 6GG      -0.624100
      8 N20          8.3540     0.4450    -0.4390 ns         1 6GG      -0.529900
      9 C19          7.0650     0.5160    -1.0930 c3         1 6GG       0.110000
     10 C17          5.9380     0.5270    -0.0730 c3         1 6GG      -0.094400
     11 C16          4.5720     0.5970    -0.7410 c3         1 6GG      -0.072400
     12 C13          3.4250     0.6190     0.2610 c3         1 6GG      -0.075400
     13 C12          2.0620     0.6740    -0.4190 c3         1 6GG      -0.084400
     14 C3           0.9450     0.6390     0.5990 c3         1 6GG       0.168600
     15 O1          -0.3030     0.6900    -0.1090 os         1 6GG      -0.465100
     16 C60         -1.4090     0.3660     0.5400 c          1 6GG       0.622300
     17 O2          -1.4680     0.0610     1.7040 o          1 6GG      -0.445000
     18 C48         -2.5820     0.4200    -0.3410 cc         1 6GG      -0.095300
     19 N49         -2.5370     0.9290    -1.6090 na         1 6GG      -0.186700
     20 C46         -3.7660     0.8350    -2.1770 ca         1 6GG      -0.036200
     21 C56         -4.2000     1.2250    -3.4450 ca         1 6GG      -0.124000
     22 C57         -5.5240     0.9870    -3.7330 ca         1 6GG       0.147000
     23 CL1         -6.1360     1.4420    -5.2910 cl         1 6GG      -0.204000
     24 C44         -3.8540    -0.0220    -0.0650 cd         1 6GG      -0.006400
     25 C45         -4.6280     0.2360    -1.2350 ca         1 6GG      -0.109800
     26 C59         -5.9680     0.0130    -1.5740 ca         1 6GG      -0.039000
     27 C58         -6.4110     0.3880    -2.8210 ca         1 6GG      -0.137000
     28 C14         -4.3270    -0.7010     1.1330 cd         1 6GG      -0.114800
     29 N13         -4.2610    -2.0670     1.2470 na         1 6GG      -0.155500
     30 C5          -3.7050    -2.9860     0.2730 c3         1 6GG       0.122900
     31 C6          -2.1990    -2.9820     0.2460 ca         1 6GG      -0.115300
     32 C7          -1.4680    -3.3580     1.3680 ca         1 6GG      -0.080000
     33 C8          -0.0840    -3.3660     1.3470 ca         1 6GG      -0.103500
     34 C9           0.5740    -2.9920     0.1840 ca         1 6GG       0.122000
     35 CL2          2.3080    -3.0070     0.1470 cl         1 6GG      -0.190000
     36 C10         -0.1290    -2.6090    -0.9460 ca         1 6GG      -0.103500
     37 C11         -1.5160    -2.6110    -0.9050 ca         1 6GG      -0.080000
     38 C18         -4.8210    -2.3980     2.4280 cd         1 6GG       0.400400
     39 N16         -5.2480    -1.3480     3.0730 nc         1 6GG      -0.674000
     40 C15         -4.9540    -0.2710     2.2820 cc         1 6GG       0.324500
     41 C37         -5.3290     1.0820     2.6950 ca         1 6GG      -0.110500
     42 C38         -6.1740     1.2540     3.7950 ca         1 6GG      -0.067000
     43 C39         -6.5670     2.5140     4.2160 ca         1 6GG      -0.159500
     44 C40         -6.1080     3.6180     3.5250 ca         1 6GG       0.165000
     45 F           -6.4880     4.8440     3.9220 f          1 6GG      -0.185000
     46 C41         -5.2660     3.4940     2.4370 ca         1 6GG      -0.159500
     47 C42         -4.8790     2.2260     2.0310 ca         1 6GG      -0.067000
     48 H2          12.1460     0.9860    -1.7260 hc         1 6GG       0.034700
     49 H3          12.0260    -0.7440    -1.6290 hc         1 6GG       0.034700
     50 H4          10.6440    -0.5290     0.4710 hc         1 6GG       0.056700
     51 H5          10.7700     1.2010     0.3780 hc         1 6GG       0.056700
     52 H6           8.3810     0.5080     0.5660 hn         1 6GG       0.309500
     53 H7           7.0040     1.4150    -1.7160 h1         1 6GG       0.040700
     54 H8           6.9440    -0.3380    -1.7650 h1         1 6GG       0.040700
     55 H9           5.9970    -0.3730     0.5480 hc         1 6GG       0.042200
     56 H10          6.0610     1.3820     0.6010 hc         1 6GG       0.042200
     57 H11          4.5180     1.4880    -1.3750 hc         1 6GG       0.041200
     58 H12          4.4490    -0.2620    -1.4100 hc         1 6GG       0.041200
     59 H13          3.4820    -0.2730     0.8930 hc         1 6GG       0.043200
     60 H14          3.5400     1.4780     0.9290 hc         1 6GG       0.043200
     61 H15          1.9880     1.5820    -1.0250 hc         1 6GG       0.050700
     62 H16          1.9590    -0.1750    -1.1010 hc         1 6GG       0.050700
     63 H17          0.9940    -0.2750     1.1950 h1         1 6GG       0.055200
     64 H18          1.0050     1.4900     1.2820 h1         1 6GG       0.055200
     65 H19         -1.7200     1.3290    -2.0440 hn         1 6GG       0.374000
     66 H20         -3.5320     1.6860    -4.1600 ha         1 6GG       0.136000
     67 H21         -6.6490    -0.4470    -0.8690 ha         1 6GG       0.131000
     68 H22         -7.4420     0.2270    -3.1050 ha         1 6GG       0.130000
     69 H23         -4.0800    -3.9790     0.5220 h1         1 6GG       0.067700
     70 H24         -4.1000    -2.7340    -0.7120 h1         1 6GG       0.067700
     71 H25         -1.9760    -3.6540     2.2780 ha         1 6GG       0.120500
     72 H26          0.4740    -3.6660     2.2230 ha         1 6GG       0.134500
     73 H27          0.3910    -2.3140    -1.8470 ha         1 6GG       0.134500
     74 H28         -2.0680    -2.3110    -1.7880 ha         1 6GG       0.120500
     75 H29         -4.8980    -3.4230     2.7590 h5         1 6GG       0.053100
     76 H30         -6.5340     0.3860     4.3310 ha         1 6GG       0.127500
     77 H31         -7.2250     2.6320     5.0670 ha         1 6GG       0.127000
     78 H32         -4.9110     4.3730     1.9130 ha         1 6GG       0.127000
     79 H33         -4.2100     2.1420     1.1870 ha         1 6GG       0.127500
@<TRIPOS>BOND
     1     1     2 1   
     2     2     3 1   
     3     2     4 1   
     4     4     5 1   
     5     4    48 1   
     6     4    49 1   
     7     5     6 1   
     8     5    50 1   
     9     5    51 1   
    10     6     7 2   
    11     6     8 1   
    12     8     9 1   
    13     8    52 1   
    14     9    10 1   
    15     9    53 1   
    16     9    54 1   
    17    10    11 1   
    18    10    55 1   
    19    10    56 1   
    20    11    12 1   
    21    11    57 1   
    22    11    58 1   
    23    12    13 1   
    24    12    59 1   
    25    12    60 1   
    26    13    14 1   
    27    13    61 1   
    28    13    62 1   
    29    14    15 1   
    30    14    63 1   
    31    14    64 1   
    32    15    16 1   
    33    16    17 2   
    34    16    18 1   
    35    18    19 1   
    36    18    24 2   
    37    19    20 1   
    38    19    65 1   
    39    20    21 ar  
    40    20    25 ar  
    41    21    22 ar  
    42    21    66 1   
    43    22    23 1   
    44    22    27 ar  
    45    24    25 1   
    46    24    28 1   
    47    25    26 ar  
    48    26    27 ar  
    49    26    67 1   
    50    27    68 1   
    51    28    29 1   
    52    28    40 2   
    53    29    30 1   
    54    29    38 1   
    55    30    31 1   
    56    30    69 1   
    57    30    70 1   
    58    31    32 ar  
    59    31    37 ar  
    60    32    33 ar  
    61    32    71 1   
    62    33    34 ar  
    63    33    72 1   
    64    34    35 1   
    65    34    36 ar  
    66    36    37 ar  
    67    36    73 1   
    68    37    74 1   
    69    38    39 2   
    70    38    75 1   
    71    39    40 1   
    72    40    41 1   
    73    41    42 ar  
    74    41    47 ar  
    75    42    43 ar  
    76    42    76 1   
    77    43    44 ar  
    78    43    77 1   
    79    44    45 1   
    80    44    46 ar  
    81    46    47 ar  
    82    46    78 1   
    83    47    79 1   
@<TRIPOS>SUBSTRUCTURE
     1 6GG         1 TEMP              0 ****  ****    0 ROOT
