@<TRIPOS>MOLECULE
6GG
   79    83     1     0     0
SMALL
No Charge or Current Charge


@<TRIPOS>ATOM
      1 O28         13.6560     0.3390    -0.4820 o          1 6GG      -0.741500
      2 C25         13.0810    -0.7380    -0.4600 c          1 6GG       0.716000
      3 O26         13.5130    -1.7240     0.1180 o          1 6GG      -0.741500
      4 C24         11.7030    -0.8380    -1.1330 c3         1 6GG      -0.201400
      5 C23         10.5770    -0.4650    -0.1280 c3         1 6GG      -0.125400
      6 C21          9.1820    -0.5440    -0.7650 c          1 6GG       0.588100
      7 O22          8.6200    -1.6060    -0.9940 o          1 6GG      -0.624100
      8 N20          8.5940     0.6730    -1.0320 ns         1 6GG      -0.529900
      9 C19          7.2550     0.8520    -1.5960 c3         1 6GG       0.110000
     10 C17          6.1480     0.6830    -0.5360 c3         1 6GG      -0.094400
     11 C16          4.7300     0.8920    -1.1100 c3         1 6GG      -0.072400
     12 C13          3.6200     0.7240    -0.0500 c3         1 6GG      -0.075400
     13 C12          2.2000     0.9200    -0.6250 c3         1 6GG      -0.084400
     14 C3           1.0990     0.7250     0.4320 c3         1 6GG       0.168600
     15 O1          -0.1700     0.8350    -0.2360 os         1 6GG      -0.465100
     16 C60         -1.2940     0.4600     0.4570 c          1 6GG       0.622300
     17 O2          -1.2600     0.1160     1.6310 o          1 6GG      -0.445000
     18 C48         -2.5420     0.6720    -0.3220 cc         1 6GG      -0.095300
     19 N49         -2.7090     1.4500    -1.4890 na         1 6GG      -0.186700
     20 C46         -4.0550     1.6260    -1.7610 ca         1 6GG      -0.036200
     21 C56         -4.6470     2.3460    -2.8060 ca         1 6GG      -0.124000
     22 C57         -6.0530     2.3370    -2.8970 ca         1 6GG       0.147000
     23 Cl1         -6.8500     3.2230    -4.1910 cl         1 6GG      -0.204000
     24 C44         -3.8430     0.3090     0.0430 cd         1 6GG      -0.006400
     25 C45         -4.8030     0.9440    -0.8400 ca         1 6GG      -0.109800
     26 C59         -6.2030     0.8800    -0.9320 ca         1 6GG      -0.039000
     27 C58         -6.8280     1.6020    -1.9700 ca         1 6GG      -0.137000
     28 C14         -4.0970    -0.6320     1.1130 cd         1 6GG      -0.114800
     29 N13         -3.4830    -1.8730     1.2740 na         1 6GG      -0.155500
     30 C5          -2.6370    -2.5820     0.2850 c3         1 6GG       0.122900
     31 C6          -1.1560    -2.7490     0.6290 ca         1 6GG      -0.115300
     32 C7          -0.7180    -2.9640     1.9540 ca         1 6GG      -0.080000
     33 C8           0.6530    -3.1070     2.2330 ca         1 6GG      -0.103500
     34 C9           1.5930    -3.0460     1.1930 ca         1 6GG       0.122000
     35 Cl2          3.3080    -3.2120     1.5450 cl         1 6GG      -0.190000
     36 C10          1.1660    -2.8470    -0.1290 ca         1 6GG      -0.103500
     37 C11         -0.2030    -2.6990    -0.4090 ca         1 6GG      -0.080000
     38 C18         -4.1630    -2.5070     2.3120 cd         1 6GG       0.400400
     39 N16         -5.1710    -1.7650     2.7600 nc         1 6GG      -0.674000
     40 C15         -5.1360    -0.6250     2.0120 cc         1 6GG       0.324500
     41 C37         -6.0440     0.5100     2.2250 ca         1 6GG      -0.110500
     42 C38         -7.3900     0.2750     2.5810 ca         1 6GG      -0.067000
     43 C39         -8.2630     1.3500     2.8220 ca         1 6GG      -0.159500
     44 C40         -7.7910     2.6670     2.7330 ca         1 6GG       0.165000
     45 F           -8.6300     3.7000     2.9660 f          1 6GG      -0.185000
     46 C41         -6.4480     2.9160     2.4190 ca         1 6GG      -0.159500
     47 C42         -5.5730     1.8430     2.1790 ca         1 6GG      -0.067000
     48 H2          11.6260    -0.1130    -1.9520 hc         1 6GG       0.034700
     49 H3          11.5040    -1.8730    -1.4400 hc         1 6GG       0.034700
     50 H4          10.6160    -1.1680     0.7130 hc         1 6GG       0.056700
     51 H5          10.7630     0.5530     0.2350 hc         1 6GG       0.056700
     52 H6           9.1360     1.4990    -0.8060 hn         1 6GG       0.309500
     53 H7           7.1940     1.8590    -2.0300 h1         1 6GG       0.040700
     54 H8           7.1070     0.1250    -2.4060 h1         1 6GG       0.040700
     55 H9           6.2150    -0.3210    -0.0980 hc         1 6GG       0.042200
     56 H10          6.3190     1.4000     0.2770 hc         1 6GG       0.042200
     57 H11          4.6630     1.8960    -1.5480 hc         1 6GG       0.041200
     58 H12          4.5630     0.1750    -1.9240 hc         1 6GG       0.041200
     59 H13          3.6940    -0.2770     0.3910 hc         1 6GG       0.043200
     60 H14          3.7830     1.4450     0.7610 hc         1 6GG       0.043200
     61 H15          2.1140     1.9260    -1.0540 hc         1 6GG       0.050700
     62 H16          2.0410     0.2040    -1.4410 hc         1 6GG       0.050700
     63 H17          1.2150    -0.2660     0.8890 h1         1 6GG       0.055200
     64 H18          1.1940     1.4820     1.2210 h1         1 6GG       0.055200
     65 H19         -1.9500     1.8850    -2.0050 hn         1 6GG       0.374000
     66 H20         -4.0450     2.8880    -3.5310 ha         1 6GG       0.136000
     67 H21         -6.7960     0.2830    -0.2450 ha         1 6GG       0.131000
     68 H22         -7.9110     1.5840    -2.0660 ha         1 6GG       0.130000
     69 H23         -3.0650    -3.5820     0.1350 h1         1 6GG       0.067700
     70 H24         -2.7260    -2.0640    -0.6780 h1         1 6GG       0.067700
     71 H25         -1.4310    -3.0130     2.7730 ha         1 6GG       0.120500
     72 H26          0.9860    -3.2630     3.2560 ha         1 6GG       0.134500
     73 H27          1.8960    -2.8000    -0.9330 ha         1 6GG       0.134500
     74 H28         -0.5210    -2.5410    -1.4380 ha         1 6GG       0.120500
     75 H29         -3.9150    -3.5140     2.6290 h5         1 6GG       0.053100
     76 H30         -7.7630    -0.7450     2.6570 ha         1 6GG       0.127500
     77 H31         -9.3030     1.1630     3.0800 ha         1 6GG       0.127000
     78 H32         -6.0840     3.9390     2.3690 ha         1 6GG       0.127000
     79 H33         -4.5280     2.0500     1.9590 ha         1 6GG       0.127500
@<TRIPOS>BOND
     1     1     2 1   
     2     2     3 1   
     3     2     4 1   
     4     4     5 1   
     5     4    48 1   
     6     4    49 1   
     7     5     6 1   
     8     5    50 1   
     9     5    51 1   
    10     6     7 2   
    11     6     8 1   
    12     8     9 1   
    13     8    52 1   
    14     9    10 1   
    15     9    53 1   
    16     9    54 1   
    17    10    11 1   
    18    10    55 1   
    19    10    56 1   
    20    11    12 1   
    21    11    57 1   
    22    11    58 1   
    23    12    13 1   
    24    12    59 1   
    25    12    60 1   
    26    13    14 1   
    27    13    61 1   
    28    13    62 1   
    29    14    15 1   
    30    14    63 1   
    31    14    64 1   
    32    15    16 1   
    33    16    17 2   
    34    16    18 1   
    35    18    19 1   
    36    18    24 2   
    37    19    20 1   
    38    19    65 1   
    39    20    21 ar  
    40    20    25 ar  
    41    21    22 ar  
    42    21    66 1   
    43    22    23 1   
    44    22    27 ar  
    45    24    25 1   
    46    24    28 1   
    47    25    26 ar  
    48    26    27 ar  
    49    26    67 1   
    50    27    68 1   
    51    28    29 1   
    52    28    40 2   
    53    29    30 1   
    54    29    38 1   
    55    30    31 1   
    56    30    69 1   
    57    30    70 1   
    58    31    32 ar  
    59    31    37 ar  
    60    32    33 ar  
    61    32    71 1   
    62    33    34 ar  
    63    33    72 1   
    64    34    35 1   
    65    34    36 ar  
    66    36    37 ar  
    67    36    73 1   
    68    37    74 1   
    69    38    39 2   
    70    38    75 1   
    71    39    40 1   
    72    40    41 1   
    73    41    42 ar  
    74    41    47 ar  
    75    42    43 ar  
    76    42    76 1   
    77    43    44 ar  
    78    43    77 1   
    79    44    45 1   
    80    44    46 ar  
    81    46    47 ar  
    82    46    78 1   
    83    47    79 1   
@<TRIPOS>SUBSTRUCTURE
     1 6GG         1 TEMP              0 ****  ****    0 ROOT
