@<TRIPOS>MOLECULE
6GH
   45    48     1     0     0
SMALL
No Charge or Current Charge


@<TRIPOS>ATOM
      1 C10          0.2820    -3.2500    -0.9380 ca         1 6GH      -0.157500
      2 C13         -3.4470     2.3860    -0.0230 ca         1 6GH      -0.157500
      3 C15         -4.9450     3.0410    -1.7890 ca         1 6GH      -0.166500
      4 C17          2.9420     0.7790    -0.2110 cc         1 6GH      -0.169500
      5 C20          3.2460    -0.1820    -1.1500 cd         1 6GH      -0.228000
      6 N01          1.5290     1.4340     1.6290 nb         1 6GH      -0.290000
      7 C01          1.6270     0.7890     0.4490 ca         1 6GH       0.258500
      8 C02          0.5130     0.1070    -0.0770 ca         1 6GH      -0.317000
      9 C03         -0.6870     0.1280     0.6520 ca         1 6GH       0.441900
     10 N02         -0.7730     0.7920     1.8170 nb         1 6GH      -0.331000
     11 C04          0.3370     1.4020     2.2300 ca         1 6GH       0.410900
     12 N03          0.2450     2.0590     3.4070 nv         1 6GH      -1.061900
     13 N04         -1.8530    -0.5300     0.1900 nh         1 6GH      -0.751300
     14 C05         -1.7680    -1.7250    -0.7090 c3         1 6GH       0.190000
     15 C06         -0.8820    -2.8900    -0.2260 ca         1 6GH       0.328800
     16 N05         -1.2760    -3.5540     0.8940 nb         1 6GH      -0.664000
     17 C07         -0.5090    -4.5770     1.3350 ca         1 6GH       0.340900
     18 C08          0.6680    -4.9850     0.6850 ca         1 6GH      -0.166500
     19 C09          1.0760    -4.3130    -0.4770 ca         1 6GH      -0.071000
     20 C11         -3.2240    -0.0870     0.5990 c3         1 6GH       0.190000
     21 C12         -3.8310     1.0470    -0.2430 ca         1 6GH       0.328800
     22 C14         -4.0110     3.4050    -0.8070 ca         1 6GH      -0.071000
     23 C16         -5.2790     1.6860    -1.9490 ca         1 6GH       0.340900
     24 N06         -4.7380     0.7010    -1.1950 nb         1 6GH      -0.664000
     25 C18          4.0410     1.6320     0.0780 cc         1 6GH      -0.084000
     26 C19          5.1660     1.3600    -0.6540 cd         1 6GH      -0.261000
     27 S01          4.9060    -0.0090    -1.7470 ss         1 6GH       0.198000
     28 H1           0.5650    -2.7110    -1.8380 ha         1 6GH       0.122500
     29 H2          -2.7190     2.6260     0.7470 ha         1 6GH       0.122500
     30 H3          -5.4090     3.7930    -2.4210 ha         1 6GH       0.123000
     31 H4           2.6300    -0.9870    -1.5300 h4         1 6GH       0.149000
     32 H5           0.5710    -0.3940    -1.0330 ha         1 6GH       0.129000
     33 H6          -0.5580     1.8670     4.0010 hn         1 6GH       0.485000
     34 H7           1.1030     2.3400     3.8740 hn         1 6GH       0.485000
     35 H8          -2.7720    -2.1370    -0.8770 h1         1 6GH       0.067700
     36 H9          -1.4180    -1.4040    -1.6990 h1         1 6GH       0.067700
     37 H10         -0.8490    -5.0850     2.2370 h4         1 6GH       0.018600
     38 H11          1.2480    -5.8140     1.0810 ha         1 6GH       0.123000
     39 H12          1.9800    -4.6070    -1.0060 ha         1 6GH       0.118000
     40 H13         -3.9120    -0.9420     0.5660 h1         1 6GH       0.067700
     41 H14         -3.2300     0.2300     1.6490 h1         1 6GH       0.067700
     42 H15         -3.7310     4.4460    -0.6580 ha         1 6GH       0.118000
     43 H16         -6.0010     1.3780    -2.7040 h4         1 6GH       0.018600
     44 H17          3.9830     2.4280     0.8170 ha         1 6GH       0.153000
     45 H18          6.1260     1.8610    -0.6240 h4         1 6GH       0.149000
@<TRIPOS>BOND
     1     1    15 ar  
     2     1    19 ar  
     3     1    28 1   
     4     2    21 ar  
     5     2    22 ar  
     6     2    29 1   
     7     3    22 ar  
     8     3    23 ar  
     9     3    30 1   
    10     4     5 2   
    11     4     7 1   
    12     4    25 1   
    13     5    27 1   
    14     5    31 1   
    15     6     7 ar  
    16     6    11 ar  
    17     7     8 ar  
    18     8     9 ar  
    19     8    32 1   
    20     9    10 ar  
    21     9    13 1   
    22    10    11 ar  
    23    11    12 1   
    24    12    33 1   
    25    12    34 1   
    26    13    14 1   
    27    13    20 1   
    28    14    15 1   
    29    14    35 1   
    30    14    36 1   
    31    15    16 ar  
    32    16    17 ar  
    33    17    18 ar  
    34    17    37 1   
    35    18    19 ar  
    36    18    38 1   
    37    19    39 1   
    38    20    21 1   
    39    20    40 1   
    40    20    41 1   
    41    21    24 ar  
    42    22    42 1   
    43    23    24 ar  
    44    23    43 1   
    45    25    26 2   
    46    25    44 1   
    47    26    27 1   
    48    26    45 1   
@<TRIPOS>SUBSTRUCTURE
     1 6GH         1 TEMP              0 ****  ****    0 ROOT
