@<TRIPOS>MOLECULE
6GH
   45    48     1     0     0
SMALL
abcg2


@<TRIPOS>ATOM
      1 C10         -0.9170    -4.0000    -1.2800 ca         1 6GH      -0.157500
      2 C13         -4.4080     1.5900     0.7120 ca         1 6GH      -0.157500
      3 C15         -4.8880     2.8800    -1.2370 ca         1 6GH      -0.166500
      4 C17          3.2680     0.8500    -0.0330 cc         1 6GH      -0.169500
      5 C20          3.7860    -0.1090    -0.8610 cd         1 6GH      -0.228000
      6 N01          1.5670     1.9710     1.1900 nb         1 6GH      -0.290000
      7 C01          1.8570     0.9600     0.3650 ca         1 6GH       0.258500
      8 C02          0.9020     0.0680    -0.0820 ca         1 6GH      -0.317000
      9 C03         -0.4170     0.2750     0.3680 ca         1 6GH       0.441900
     10 N02         -0.7050     1.2720     1.2040 nb         1 6GH      -0.331000
     11 C04          0.2950     2.0680     1.5730 ca         1 6GH       0.410900
     12 N03         -0.0220     3.1020     2.3870 nv         1 6GH      -1.061900
     13 N04         -1.4480    -0.5080    -0.0130 nh         1 6GH      -0.751300
     14 C05         -1.3010    -1.5350    -1.0050 c3         1 6GH       0.190000
     15 C06         -0.8890    -2.8810    -0.4510 ca         1 6GH       0.328800
     16 N05         -0.5090    -2.9460     0.8160 nb         1 6GH      -0.664000
     17 C07         -0.1390    -4.1260     1.3060 ca         1 6GH       0.340900
     18 C08         -0.1280    -5.2930     0.5630 ca         1 6GH      -0.166500
     19 C09         -0.5290    -5.2240    -0.7650 ca         1 6GH      -0.071000
     20 C11         -2.7520    -0.3020     0.5670 c3         1 6GH       0.190000
     21 C12         -3.5030     0.8550    -0.0470 ca         1 6GH       0.328800
     22 C14         -5.1140     2.6150     0.1060 ca         1 6GH      -0.071000
     23 C16         -3.9640     2.0940    -1.9070 ca         1 6GH       0.340900
     24 N06         -3.2890     1.1040    -1.3330 nb         1 6GH      -0.664000
     25 C18          4.2770     1.7570     0.4150 cc         1 6GH      -0.084000
     26 C19          5.5080     1.4650    -0.0780 cd         1 6GH      -0.261000
     27 S01          5.4650     0.0840    -1.0950 ss         1 6GH       0.198000
     28 H1          -1.2400    -3.9080    -2.3100 ha         1 6GH       0.122500
     29 H2          -4.5500     1.3620     1.7610 ha         1 6GH       0.122500
     30 H3          -5.4090     3.6730    -1.7540 ha         1 6GH       0.123000
     31 H4           3.2710    -0.9220    -1.3490 h4         1 6GH       0.149000
     32 H5           1.1640    -0.7580    -0.7240 ha         1 6GH       0.129000
     33 H6          -0.9050     3.0750     2.8650 hn         1 6GH       0.485000
     34 H7           0.7270     3.5840     2.8530 hn         1 6GH       0.485000
     35 H8          -2.2480    -1.6380    -1.5370 h1         1 6GH       0.067700
     36 H9          -0.5860    -1.2230    -1.7710 h1         1 6GH       0.067700
     37 H10          0.1640    -4.1390     2.3480 h4         1 6GH       0.018600
     38 H11          0.1810    -6.2270     1.0120 ha         1 6GH       0.123000
     39 H12         -0.5440    -6.1100    -1.3860 ha         1 6GH       0.118000
     40 H13         -3.3330    -1.2160     0.4200 h1         1 6GH       0.067700
     41 H14         -2.6720    -0.1570     1.6440 h1         1 6GH       0.067700
     42 H15         -5.8220     3.2040     0.6750 ha         1 6GH       0.118000
     43 H16         -3.7590     2.2690    -2.9580 h4         1 6GH       0.018600
     44 H17          4.0790     2.5870     1.0770 ha         1 6GH       0.153000
     45 H18          6.4360     1.9860     0.0990 h4         1 6GH       0.149000
@<TRIPOS>BOND
     1     1    15 ar  
     2     1    19 ar  
     3     1    28 1   
     4     2    21 ar  
     5     2    22 ar  
     6     2    29 1   
     7     3    22 ar  
     8     3    23 ar  
     9     3    30 1   
    10     4     5 2   
    11     4     7 1   
    12     4    25 1   
    13     5    27 1   
    14     5    31 1   
    15     6     7 ar  
    16     6    11 ar  
    17     7     8 ar  
    18     8     9 ar  
    19     8    32 1   
    20     9    10 ar  
    21     9    13 1   
    22    10    11 ar  
    23    11    12 1   
    24    12    33 1   
    25    12    34 1   
    26    13    14 1   
    27    13    20 1   
    28    14    15 1   
    29    14    35 1   
    30    14    36 1   
    31    15    16 ar  
    32    16    17 ar  
    33    17    18 ar  
    34    17    37 1   
    35    18    19 ar  
    36    18    38 1   
    37    19    39 1   
    38    20    21 1   
    39    20    40 1   
    40    20    41 1   
    41    21    24 ar  
    42    22    42 1   
    43    23    24 ar  
    44    23    43 1   
    45    25    26 2   
    46    25    44 1   
    47    26    27 1   
    48    26    45 1   
@<TRIPOS>SUBSTRUCTURE
     1 6GH         1 TEMP              0 ****  ****    0 ROOT
