@<TRIPOS>MOLECULE
6GI
   59    65     1     0     0
SMALL
No Charge or Current Charge


@<TRIPOS>ATOM
      1 C01        -15.0070   -50.1030   -47.4130 cc         1 6GI      -0.099000
      2 C02        -14.1270   -50.8670   -48.1810 cd         1 6GI      -0.143000
      3 C03        -14.1460   -52.3140   -48.2010 cd         1 6GI      -0.104000
      4 C04        -15.0790   -52.9800   -47.4400 cc         1 6GI      -0.066000
      5 C05        -15.9850   -52.2110   -46.6610 cc         1 6GI      -0.068000
      6 C08        -17.5290   -51.4040   -45.3750 cd         1 6GI       0.011400
      7 C09        -16.8730   -50.2920   -45.8730 cc         1 6GI      -0.255100
      8 C10        -18.7100   -51.4150   -44.4200 c3         1 6GI       0.245800
      9 C12        -17.3730   -51.8370   -42.3770 ca         1 6GI       0.164100
     10 C13        -16.7880   -50.5540   -42.3650 ca         1 6GI      -0.167000
     11 C14        -15.7260   -50.2710   -41.4900 ca         1 6GI      -0.044500
     12 C15        -15.2360   -51.2660   -40.6170 ca         1 6GI      -0.183300
     13 C16        -15.8470   -52.5350   -40.6070 ca         1 6GI      -0.044500
     14 C17        -16.9110   -52.8140   -41.4820 ca         1 6GI      -0.167000
     15 C18        -14.0240   -51.0030   -39.7200 c6         1 6GI       0.463800
     16 C20        -12.5170   -49.0190   -40.0870 cc         1 6GI       0.685800
     17 C22        -13.9670   -48.9330   -38.3890 c2         1 6GI       0.869100
     18 C25        -12.3880   -50.6360   -41.5990 ca         1 6GI      -0.065200
     19 C26        -11.5930   -49.5810   -41.9490 ca         1 6GI       0.094400
     20 C28        -12.5170   -51.7910   -42.3800 ca         1 6GI      -0.107000
     21 C29        -11.7960   -51.8500   -43.5880 ca         1 6GI       0.063100
     22 C30        -10.9880   -50.7360   -43.9900 ca         1 6GI       0.053100
     23 C31        -10.8720   -49.6060   -43.1490 ca         1 6GI      -0.070000
     24 C33        -10.7400   -53.4860   -45.0740 c3         1 6GI       0.161600
     25 C34        -10.7010   -52.7600   -46.4300 c3         1 6GI      -0.132400
     26 C35        -11.0000   -51.2510   -46.3750 c3         1 6GI       0.163600
     27 N06        -15.9100   -50.8530   -46.6560 na         1 6GI       0.128100
     28 N07        -16.9750   -52.5870   -45.8710 nd         1 6GI      -0.271600
     29 N19        -12.9580   -50.2830   -40.4140 na         1 6GI      -0.254600
     30 N21        -12.9760   -48.4040   -38.9570 ne         1 6GI      -0.776000
     31 N23        -14.4070   -50.1630   -38.5850 nu         1 6GI      -0.953400
     32 N24        -14.1920   -48.6820   -37.1310 nv         1 6GI      -1.051200
     33 N27        -11.6520   -48.5540   -41.0030 nd         1 6GI      -0.571100
     34 O11        -18.3910   -52.1870   -43.2410 os         1 6GI      -0.340100
     35 O32        -11.8670   -53.0260   -44.3090 os         1 6GI      -0.358100
     36 O36        -10.3660   -50.6730   -45.2210 os         1 6GI      -0.358100
     37 H1         -15.0460   -49.0230   -47.3540 h4         1 6GI       0.145000
     38 H2         -13.3940   -50.3500   -48.7920 ha         1 6GI       0.129000
     39 H3         -13.4420   -52.8670   -48.8140 ha         1 6GI       0.122000
     40 H4         -15.1400   -54.0640   -47.4310 ha         1 6GI       0.143000
     41 H5         -17.0100   -49.2260   -45.7340 h4         1 6GI       0.230000
     42 H6         -18.9880   -50.3870   -44.1560 h1         1 6GI       0.065700
     43 H7         -19.5690   -51.8610   -44.9360 h1         1 6GI       0.065700
     44 H8         -17.1370   -49.7680   -43.0270 ha         1 6GI       0.127500
     45 H9         -15.2750   -49.2810   -41.5030 ha         1 6GI       0.121500
     46 H10        -15.4840   -53.3130   -39.9370 ha         1 6GI       0.121500
     47 H11        -17.3650   -53.8010   -41.4820 ha         1 6GI       0.127500
     48 H12        -13.5950   -51.9600   -39.3860 h2         1 6GI       0.049700
     49 H14        -13.1400   -52.6240   -42.0650 ha         1 6GI       0.137000
     50 H15        -10.2670   -48.7550   -43.4460 ha         1 6GI       0.141000
     51 H16        -10.8150   -54.5660   -45.2540 h1         1 6GI       0.057200
     52 H17         -9.8060   -53.3060   -44.5240 h1         1 6GI       0.057200
     53 H18         -9.7100   -52.9110   -46.8750 hc         1 6GI       0.053700
     54 H19        -11.4200   -53.2320   -47.1090 hc         1 6GI       0.053700
     55 H20        -10.6290   -50.7810   -47.2940 h1         1 6GI       0.053700
     56 H21        -12.0840   -51.0870   -46.3310 h1         1 6GI       0.053700
     57 H22        -14.5890   -50.6250   -37.7060 hn         1 6GI       0.488000
     58 H24        -13.6130   -47.8990   -36.8630 hn         1 6GI       0.501000
     59 H25        -15.1720   -48.4970   -36.9750 hn         1 6GI       0.501000
@<TRIPOS>BOND
     1     1     2 2   
     2     1    27 1   
     3     1    37 1   
     4     2     3 1   
     5     2    38 1   
     6     3     4 2   
     7     3    39 1   
     8     4     5 1   
     9     4    40 1   
    10     5    27 1   
    11     5    28 2   
    12     6     7 2   
    13     6     8 1   
    14     6    28 1   
    15     7    27 1   
    16     7    41 1   
    17     8    34 1   
    18     8    42 1   
    19     8    43 1   
    20     9    10 ar  
    21     9    14 ar  
    22     9    34 1   
    23    10    11 ar  
    24    10    44 1   
    25    11    12 ar  
    26    11    45 1   
    27    12    13 ar  
    28    12    15 1   
    29    13    14 ar  
    30    13    46 1   
    31    14    47 1   
    32    15    29 1   
    33    15    31 1   
    34    15    48 1   
    35    16    29 1   
    36    16    30 1   
    37    16    33 2   
    38    17    30 2   
    39    17    31 1   
    40    17    32 1   
    41    18    19 ar  
    42    18    20 ar  
    43    18    29 1   
    44    19    23 ar  
    45    19    33 1   
    46    20    21 ar  
    47    20    49 1   
    48    21    22 ar  
    49    21    35 1   
    50    22    23 ar  
    51    22    36 1   
    52    23    50 1   
    53    24    25 1   
    54    24    35 1   
    55    24    51 1   
    56    24    52 1   
    57    25    26 1   
    58    25    53 1   
    59    25    54 1   
    60    26    36 1   
    61    26    55 1   
    62    26    56 1   
    63    31    57 1   
    64    32    58 1   
    65    32    59 1   
@<TRIPOS>SUBSTRUCTURE
     1 6GI         1 TEMP              0 ****  ****    0 ROOT
