@<TRIPOS>MOLECULE
6GI
   59    65     1     0     0
SMALL
abcg2


@<TRIPOS>ATOM
      1 C01        -14.8010   -50.4070   -47.3650 cc         1 6GI      -0.099000
      2 C02        -13.9920   -51.1290   -48.1840 cd         1 6GI      -0.143000
      3 C03        -14.1530   -52.5350   -48.2970 cd         1 6GI      -0.104000
      4 C04        -15.1190   -53.1860   -47.5790 cc         1 6GI      -0.066000
      5 C05        -15.9630   -52.4420   -46.7300 cc         1 6GI      -0.068000
      6 C08        -17.4420   -51.6670   -45.3660 cd         1 6GI       0.011400
      7 C09        -16.7220   -50.5710   -45.7790 cc         1 6GI      -0.255100
      8 C10        -18.5840   -51.6960   -44.4080 c3         1 6GI       0.245800
      9 C12        -17.3120   -51.9650   -42.3730 ca         1 6GI       0.164100
     10 C13        -16.9140   -50.6270   -42.3170 ca         1 6GI      -0.167000
     11 C14        -15.9210   -50.2440   -41.4270 ca         1 6GI      -0.044500
     12 C15        -15.3130   -51.1750   -40.5910 ca         1 6GI      -0.183300
     13 C16        -15.7360   -52.4990   -40.6320 ca         1 6GI      -0.044500
     14 C17        -16.7290   -52.8970   -41.5150 ca         1 6GI      -0.167000
     15 C18        -14.1560   -50.7780   -39.7120 c6         1 6GI       0.463800
     16 C20        -12.2440   -49.2070   -39.8900 cc         1 6GI       0.685800
     17 C22        -13.6450   -48.9780   -38.1190 c2         1 6GI       0.869100
     18 C25        -12.5280   -50.5120   -41.6820 ca         1 6GI      -0.065200
     19 C26        -11.3660   -49.7160   -41.7910 ca         1 6GI       0.094400
     20 C28        -12.8910   -51.4150   -42.6680 ca         1 6GI      -0.107000
     21 C29        -12.0820   -51.5170   -43.7990 ca         1 6GI       0.063100
     22 C30        -10.9350   -50.7030   -43.9390 ca         1 6GI       0.053100
     23 C31        -10.5770   -49.8090   -42.9330 ca         1 6GI      -0.070000
     24 C33        -11.4550   -53.1980   -45.3830 c3         1 6GI       0.161600
     25 C34        -10.8580   -52.4790   -46.5870 c3         1 6GI      -0.132400
     26 C35        -10.7010   -50.9940   -46.3080 c3         1 6GI       0.163600
     27 N06        -15.7750   -51.0550   -46.6540 na         1 6GI       0.128100
     28 N07        -16.9740   -52.8160   -45.9500 nd         1 6GI      -0.271600
     29 N19        -13.0880   -50.1440   -40.4660 na         1 6GI      -0.254600
     30 N21        -12.4860   -48.6750   -38.6650 ne         1 6GI      -0.776000
     31 N23        -14.5600   -49.7950   -38.7090 nu         1 6GI      -0.953400
     32 N24        -13.9710   -48.4450   -36.9250 nv         1 6GI      -1.051200
     33 N27        -11.2150   -48.9150   -40.6670 nd         1 6GI      -0.571100
     34 O11        -18.2720   -52.4430   -43.2140 os         1 6GI      -0.340100
     35 O32        -12.4910   -52.4210   -44.7560 os         1 6GI      -0.358100
     36 O36        -10.0930   -50.7630   -45.0250 os         1 6GI      -0.358100
     37 H1         -14.7330   -49.3380   -47.2270 h4         1 6GI       0.145000
     38 H2         -13.2210   -50.6190   -48.7440 ha         1 6GI       0.129000
     39 H3         -13.5010   -53.0930   -48.9550 ha         1 6GI       0.122000
     40 H4         -15.2610   -54.2550   -47.6430 ha         1 6GI       0.143000
     41 H5         -16.7910   -49.5260   -45.5330 h4         1 6GI       0.230000
     42 H6         -18.9130   -50.6870   -44.1600 h1         1 6GI       0.065700
     43 H7         -19.4270   -52.2350   -44.8380 h1         1 6GI       0.065700
     44 H8         -17.3590   -49.8850   -42.9620 ha         1 6GI       0.127500
     45 H9         -15.5980   -49.2110   -41.4040 ha         1 6GI       0.121500
     46 H10        -15.2660   -53.2330   -39.9890 ha         1 6GI       0.121500
     47 H11        -17.0480   -53.9300   -41.5660 ha         1 6GI       0.127500
     48 H12        -13.7630   -51.6790   -39.2230 h2         1 6GI       0.049700
     49 H14        -13.7620   -52.0500   -42.5950 ha         1 6GI       0.137000
     50 H15         -9.6940   -49.1970   -43.0620 ha         1 6GI       0.141000
     51 H16        -11.9260   -54.1340   -45.6790 h1         1 6GI       0.057200
     52 H17        -10.6860   -53.4190   -44.6400 h1         1 6GI       0.057200
     53 H18         -9.8910   -52.9310   -46.8190 hc         1 6GI       0.053700
     54 H19        -11.4950   -52.6000   -47.4650 hc         1 6GI       0.053700
     55 H20        -10.0410   -50.5260   -47.0380 h1         1 6GI       0.053700
     56 H21        -11.6660   -50.4860   -46.3420 h1         1 6GI       0.053700
     57 H22        -15.3890   -50.0350   -38.1840 hn         1 6GI       0.488000
     58 H24        -13.4330   -47.6590   -36.5990 hn         1 6GI       0.501000
     59 H25        -14.8950   -48.5670   -36.5450 hn         1 6GI       0.501000
@<TRIPOS>BOND
     1     1     2 2   
     2     1    27 1   
     3     1    37 1   
     4     2     3 1   
     5     2    38 1   
     6     3     4 2   
     7     3    39 1   
     8     4     5 1   
     9     4    40 1   
    10     5    27 1   
    11     5    28 2   
    12     6     7 2   
    13     6     8 1   
    14     6    28 1   
    15     7    27 1   
    16     7    41 1   
    17     8    34 1   
    18     8    42 1   
    19     8    43 1   
    20     9    10 ar  
    21     9    14 ar  
    22     9    34 1   
    23    10    11 ar  
    24    10    44 1   
    25    11    12 ar  
    26    11    45 1   
    27    12    13 ar  
    28    12    15 1   
    29    13    14 ar  
    30    13    46 1   
    31    14    47 1   
    32    15    29 1   
    33    15    31 1   
    34    15    48 1   
    35    16    29 1   
    36    16    30 1   
    37    16    33 2   
    38    17    30 2   
    39    17    31 1   
    40    17    32 1   
    41    18    19 ar  
    42    18    20 ar  
    43    18    29 1   
    44    19    23 ar  
    45    19    33 1   
    46    20    21 ar  
    47    20    49 1   
    48    21    22 ar  
    49    21    35 1   
    50    22    23 ar  
    51    22    36 1   
    52    23    50 1   
    53    24    25 1   
    54    24    35 1   
    55    24    51 1   
    56    24    52 1   
    57    25    26 1   
    58    25    53 1   
    59    25    54 1   
    60    26    36 1   
    61    26    55 1   
    62    26    56 1   
    63    31    57 1   
    64    32    58 1   
    65    32    59 1   
@<TRIPOS>SUBSTRUCTURE
     1 6GI         1 TEMP              0 ****  ****    0 ROOT
