@<TRIPOS>MOLECULE
6GK
   52    55     1     0     0
SMALL
No Charge or Current Charge


@<TRIPOS>ATOM
      1 C10          0.8230     0.0490    -0.6800 ca         1 6GK       0.428900
      2 C13          3.6690     1.7910     0.1160 ca         1 6GK       0.329300
      3 C15          3.2220     4.1090     0.6950 ca         1 6GK      -0.073500
      4 C17          5.0400     2.8420     1.6740 ca         1 6GK       0.339900
      5 C20          1.9970    -4.5630    -1.0710 ca         1 6GK       0.339900
      6 C21          0.9750    -5.2450    -0.3900 ca         1 6GK      -0.166500
      7 C22          0.3790    -4.6430     0.7280 ca         1 6GK      -0.073500
      8 C01         -4.8990     2.7870    -0.1610 c3         1 6GK       0.147900
      9 C02         -3.9710     0.5480     0.3310 ca         1 6GK       0.177100
     10 C07         -5.1440     0.1450     1.0080 ca         1 6GK      -0.211000
     11 C06         -5.2210    -1.1300     1.5900 ca         1 6GK      -0.064000
     12 C05         -4.1290    -2.0040     1.5050 ca         1 6GK      -0.157000
     13 C04         -2.9610    -1.6100     0.8340 ca         1 6GK      -0.058000
     14 C03         -2.8560    -0.3320     0.2270 cp         1 6GK      -0.182500
     15 C08         -1.5900     0.0360    -0.4830 cp         1 6GK       0.246500
     16 C11         -0.3240    -0.2750     0.0600 ca         1 6GK      -0.329000
     17 N01         -1.6720     0.6270    -1.6890 nb         1 6GK      -0.259000
     18 C09         -0.5190     0.9050    -2.3060 ca         1 6GK       0.401900
     19 N02         -0.6120     1.5100    -3.5130 nv         1 6GK      -1.052900
     20 N03          0.7190     0.6570    -1.8750 nb         1 6GK      -0.328000
     21 N04          2.1250    -0.2360    -0.2000 nh         1 6GK      -0.756300
     22 C18          2.3700    -1.3450     0.7750 c3         1 6GK       0.195000
     23 C19          1.8570    -2.7440     0.3740 ca         1 6GK       0.329300
     24 N06          2.4380    -3.3390    -0.7020 nb         1 6GK      -0.667000
     25 C23          0.8330    -3.3720     1.1150 ca         1 6GK      -0.151500
     26 C12          3.3290     0.5180    -0.6770 c3         1 6GK       0.195000
     27 N05          4.7300     1.7330     0.9650 nb         1 6GK      -0.667000
     28 C16          4.3170     4.0430     1.5700 ca         1 6GK      -0.166500
     29 C14          2.8970     2.9590    -0.0430 ca         1 6GK      -0.151500
     30 H1           2.6410     5.0230     0.5920 ha         1 6GK       0.118000
     31 H2           5.8940     2.7660     2.3460 h4         1 6GK       0.017100
     32 H3           2.4800    -5.0110    -1.9400 h4         1 6GK       0.017100
     33 H4           0.6580    -6.2280    -0.7280 ha         1 6GK       0.122500
     34 H5          -0.4120    -5.1470     1.2800 ha         1 6GK       0.118000
     35 H6          -4.5860     3.7120    -0.6590 h1         1 6GK       0.039367
     36 H7          -5.8010     2.4170    -0.6660 h1         1 6GK       0.039367
     37 H8          -5.1510     3.0290     0.8790 h1         1 6GK       0.039367
     38 H9          -6.0010     0.8060     1.0980 ha         1 6GK       0.116000
     39 H10         -6.1260    -1.4380     2.1120 ha         1 6GK       0.109000
     40 H11         -4.1880    -2.9910     1.9570 ha         1 6GK       0.115000
     41 H12         -2.1300    -2.3090     0.7700 ha         1 6GK       0.119000
     42 H13         -0.2560    -0.7340     1.0380 ha         1 6GK       0.131000
     43 H14         -1.5050     1.9150    -3.7840 hn         1 6GK       0.481500
     44 H15          0.2250     1.9220    -3.9170 hn         1 6GK       0.481500
     45 H16          3.4480    -1.4430     0.9650 h1         1 6GK       0.067700
     46 H17          1.9310    -1.0740     1.7440 h1         1 6GK       0.067700
     47 H18          0.3980    -2.8790     1.9790 ha         1 6GK       0.124500
     48 H19          3.2210     0.7980    -1.7330 h1         1 6GK       0.067700
     49 H20          4.2060    -0.1430    -0.6570 h1         1 6GK       0.067700
     50 H21          4.6080     4.9060     2.1630 ha         1 6GK       0.122500
     51 H22          2.0550     2.9680    -0.7290 ha         1 6GK       0.124500
     52 O01         -3.8450     1.8110    -0.2180 os         1 6GK      -0.321100
@<TRIPOS>BOND
     1     1    16 ar  
     2     1    20 ar  
     3     1    21 1   
     4     2    26 1   
     5     2    27 ar  
     6     2    29 ar  
     7     3    28 ar  
     8     3    29 ar  
     9     3    30 1   
    10     4    27 ar  
    11     4    28 ar  
    12     4    31 1   
    13     5     6 ar  
    14     5    24 ar  
    15     5    32 1   
    16     6     7 ar  
    17     6    33 1   
    18     7    25 ar  
    19     7    34 1   
    20     8    35 1   
    21     8    36 1   
    22     8    37 1   
    23     8    52 1   
    24     9    10 ar  
    25     9    14 ar  
    26     9    52 1   
    27    10    11 ar  
    28    10    38 1   
    29    11    12 ar  
    30    11    39 1   
    31    12    13 ar  
    32    12    40 1   
    33    13    14 ar  
    34    13    41 1   
    35    14    15 1   
    36    15    16 ar  
    37    15    17 ar  
    38    16    42 1   
    39    17    18 ar  
    40    18    19 1   
    41    18    20 ar  
    42    19    43 1   
    43    19    44 1   
    44    21    22 1   
    45    21    26 1   
    46    22    23 1   
    47    22    45 1   
    48    22    46 1   
    49    23    24 ar  
    50    23    25 ar  
    51    25    47 1   
    52    26    48 1   
    53    26    49 1   
    54    28    50 1   
    55    29    51 1   
@<TRIPOS>SUBSTRUCTURE
     1 6GK         1 TEMP              0 ****  ****    0 ROOT
