@<TRIPOS>MOLECULE
6GK
   52    55     1     0     0
SMALL
abcg2


@<TRIPOS>ATOM
      1 C10          0.7430     0.1430    -0.4130 ca         1 6GK       0.428900
      2 C13          3.4950     1.6250    -0.1810 ca         1 6GK       0.329300
      3 C15          4.3510     3.8010    -0.6760 ca         1 6GK      -0.073500
      4 C17          3.6400     3.1600     1.5000 ca         1 6GK       0.339900
      5 C20          1.8760    -4.2740    -0.8470 ca         1 6GK       0.339900
      6 C21          1.2100    -5.1930    -0.0500 ca         1 6GK      -0.166500
      7 C22          0.7860    -4.7810     1.2040 ca         1 6GK      -0.073500
      8 C01         -4.6920     2.6520     0.9590 c3         1 6GK       0.147900
      9 C02         -3.9700     0.4530     0.4340 ca         1 6GK       0.177100
     10 C07         -5.1860    -0.1010     0.8300 ca         1 6GK      -0.211000
     11 C06         -5.3750    -1.4770     0.7820 ca         1 6GK      -0.064000
     12 C05         -4.3620    -2.3160     0.3510 ca         1 6GK      -0.157000
     13 C04         -3.1500    -1.7610    -0.0380 ca         1 6GK      -0.058000
     14 C03         -2.9380    -0.3880    -0.0150 cp         1 6GK      -0.182500
     15 C08         -1.6290     0.1480    -0.4580 cp         1 6GK       0.246500
     16 C11         -0.4720    -0.3470     0.1080 ca         1 6GK      -0.329000
     17 N01         -1.6330     1.0620    -1.4280 nb         1 6GK      -0.259000
     18 C09         -0.4330     1.4740    -1.8360 ca         1 6GK       0.401900
     19 N02         -0.4050     2.3850    -2.8400 nv         1 6GK      -1.052900
     20 N03          0.7460     1.0540    -1.3830 nb         1 6GK      -0.328000
     21 N04          1.9460    -0.2760     0.0350 nh         1 6GK      -0.756300
     22 C18          2.0420    -1.2110     1.1270 c3         1 6GK       0.195000
     23 C19          1.7190    -2.6320     0.7280 ca         1 6GK       0.329300
     24 N06          2.1270    -3.0260    -0.4730 nb         1 6GK      -0.667000
     25 C23          1.0440    -3.4780     1.6000 ca         1 6GK      -0.151500
     26 C12          3.1490     0.2140    -0.5920 c3         1 6GK       0.195000
     27 N05          3.3170     1.9370     1.0970 nb         1 6GK      -0.667000
     28 C16          4.1630     4.1300     0.6590 ca         1 6GK      -0.166500
     29 C14          4.0080     2.5300    -1.1040 ca         1 6GK      -0.151500
     30 H1           4.7490     4.5280    -1.3730 ha         1 6GK       0.118000
     31 H2           3.4770     3.3790     2.5500 h4         1 6GK       0.017100
     32 H3           2.2210    -4.5590    -1.8350 h4         1 6GK       0.017100
     33 H4           1.0300    -6.1980    -0.4060 ha         1 6GK       0.122500
     34 H5           0.2570    -5.4600     1.8610 ha         1 6GK       0.118000
     35 H6          -4.2620     3.6490     0.9160 h1         1 6GK       0.039367
     36 H7          -5.5910     2.6300     0.3380 h1         1 6GK       0.039367
     37 H8          -4.9740     2.4350     1.9930 h1         1 6GK       0.039367
     38 H9          -5.9940     0.5220     1.1870 ha         1 6GK       0.116000
     39 H10         -6.3280    -1.8860     1.0930 ha         1 6GK       0.109000
     40 H11         -4.5090    -3.3870     0.3140 ha         1 6GK       0.115000
     41 H12         -2.3520    -2.4050    -0.3870 ha         1 6GK       0.119000
     42 H13         -0.5240    -1.0820     0.8950 ha         1 6GK       0.131000
     43 H14         -1.2480     2.9050    -3.0170 hn         1 6GK       0.481500
     44 H15          0.4560     2.8860    -2.9830 hn         1 6GK       0.481500
     45 H16          3.0620    -1.1730     1.5090 h1         1 6GK       0.067700
     46 H17          1.4090    -0.9000     1.9620 h1         1 6GK       0.067700
     47 H18          0.7190    -3.1180     2.5680 ha         1 6GK       0.124500
     48 H19          3.0680     0.1510    -1.6770 h1         1 6GK       0.067700
     49 H20          3.9660    -0.4490    -0.3030 h1         1 6GK       0.067700
     50 H21          4.4110     5.1110     1.0400 ha         1 6GK       0.122500
     51 H22          4.1260     2.2410    -2.1400 ha         1 6GK       0.124500
     52 O01         -3.6980     1.7670     0.4840 os         1 6GK      -0.321100
@<TRIPOS>BOND
     1     1    16 ar  
     2     1    20 ar  
     3     1    21 1   
     4     2    26 1   
     5     2    27 ar  
     6     2    29 ar  
     7     3    28 ar  
     8     3    29 ar  
     9     3    30 1   
    10     4    27 ar  
    11     4    28 ar  
    12     4    31 1   
    13     5     6 ar  
    14     5    24 ar  
    15     5    32 1   
    16     6     7 ar  
    17     6    33 1   
    18     7    25 ar  
    19     7    34 1   
    20     8    35 1   
    21     8    36 1   
    22     8    37 1   
    23     8    52 1   
    24     9    10 ar  
    25     9    14 ar  
    26     9    52 1   
    27    10    11 ar  
    28    10    38 1   
    29    11    12 ar  
    30    11    39 1   
    31    12    13 ar  
    32    12    40 1   
    33    13    14 ar  
    34    13    41 1   
    35    14    15 1   
    36    15    16 ar  
    37    15    17 ar  
    38    16    42 1   
    39    17    18 ar  
    40    18    19 1   
    41    18    20 ar  
    42    19    43 1   
    43    19    44 1   
    44    21    22 1   
    45    21    26 1   
    46    22    23 1   
    47    22    45 1   
    48    22    46 1   
    49    23    24 ar  
    50    23    25 ar  
    51    25    47 1   
    52    26    48 1   
    53    26    49 1   
    54    28    50 1   
    55    29    51 1   
@<TRIPOS>SUBSTRUCTURE
     1 6GK         1 TEMP              0 ****  ****    0 ROOT
