@<TRIPOS>MOLECULE
6GM
   49    52     1     0     0
SMALL
No Charge or Current Charge


@<TRIPOS>ATOM
      1 C10         -3.4810     1.2060    -0.0710 ca         1 6GM      -0.036000
      2 C13          3.8820    -1.9520     0.3090 ca         1 6GM      -0.137500
      3 C15          6.0020    -0.8960     0.7450 ca         1 6GM      -0.161000
      4 C17          1.5420     0.9470    -1.7980 c3         1 6GM       0.178000
      5 C20          0.9290     3.6830     1.4610 ca         1 6GM      -0.161000
      6 C21          1.7550     2.5710     1.6870 ca         1 6GM      -0.077500
      7 C22          1.9630     1.6760     0.6260 ca         1 6GM      -0.137500
      8 C06         -4.5230    -0.9380     0.4060 ca         1 6GM      -0.036000
      9 C07         -5.7710    -0.3020     0.5220 ca         1 6GM      -0.192000
     10 C08         -5.8750     1.0820     0.3420 ca         1 6GM       0.152100
     11 O01         -7.0890     1.6880     0.4580 oh         1 6GM      -0.532100
     12 C09         -4.7320     1.8370     0.0480 ca         1 6GM      -0.192000
     13 C05         -3.3480    -0.1990     0.1010 cp         1 6GM      -0.196500
     14 C04         -2.0120    -0.8760    -0.0230 cp         1 6GM       0.246500
     15 C03         -0.9370    -0.3240    -0.7570 ca         1 6GM      -0.322000
     16 N03         -1.8520    -2.0620     0.5930 nb         1 6GM      -0.285000
     17 C01         -0.6570    -2.6490     0.4830 ca         1 6GM       0.403900
     18 N01         -0.5140    -3.8380     1.1090 nv         1 6GM      -1.052900
     19 N02          0.4170    -2.2000    -0.1690 nb         1 6GM      -0.337000
     20 C02          0.2810    -1.0190    -0.7970 ca         1 6GM       0.420900
     21 N04          1.4080    -0.5140    -1.4950 nh         1 6GM      -0.790300
     22 C18          1.3430     1.9170    -0.6180 ca         1 6GM       0.320800
     23 N06          0.5470     2.9980    -0.8320 nb         1 6GM      -0.676500
     24 C19          0.3480     3.8580     0.1940 ca         1 6GM       0.334900
     25 C11          2.5930    -1.3720    -1.8280 c3         1 6GM       0.178000
     26 C12          3.8110    -1.2280    -0.8980 ca         1 6GM       0.320800
     27 N05          4.7900    -0.3670    -1.2860 nb         1 6GM      -0.676500
     28 C16          5.8610    -0.2110    -0.4740 ca         1 6GM       0.334900
     29 C14          4.9950    -1.7860     1.1490 ca         1 6GM      -0.077500
     30 H1          -2.6090     1.8210    -0.2820 ha         1 6GM       0.130500
     31 H2           3.0810    -2.6290     0.5890 ha         1 6GM       0.135500
     32 H3           6.8820    -0.7340     1.3610 ha         1 6GM       0.123500
     33 H4           2.5400     1.1530    -2.2080 h1         1 6GM       0.075450
     34 H5           0.8340     1.2130    -2.5940 h1         1 6GM       0.075450
     35 H7           2.2200     2.4060     2.6570 ha         1 6GM       0.119500
     36 H8           2.5930     0.8020     0.7610 ha         1 6GM       0.135500
     37 H9          -4.4730    -2.0160     0.5450 ha         1 6GM       0.130500
     38 H10         -6.6570    -0.8870     0.7520 ha         1 6GM       0.120500
     39 H11         -6.9700     2.6490     0.3020 ho         1 6GM       0.465000
     40 H12         -4.8010     2.9140    -0.0870 ha         1 6GM       0.120500
     41 H13         -1.0600     0.6080    -1.2920 ha         1 6GM       0.154000
     42 H14         -1.2160    -4.1120     1.7910 hn         1 6GM       0.482500
     43 H15          0.4220    -4.2130     1.2340 hn         1 6GM       0.482500
     44 H16         -0.2960     4.7130    -0.0080 h4         1 6GM       0.018100
     45 H17          2.3080    -2.4330    -1.8550 h1         1 6GM       0.075450
     46 H18          2.9200    -1.1460    -2.8520 h1         1 6GM       0.075450
     47 H19          6.6280     0.4850    -0.8110 h4         1 6GM       0.018100
     48 H20          5.0740    -2.3320     2.0880 ha         1 6GM       0.119500
     49 H6           0.7370     4.4030     2.2510 ha         1 6GM       0.123500
@<TRIPOS>BOND
     1     1    12 ar  
     2     1    13 ar  
     3     1    30 1   
     4     2    26 ar  
     5     2    29 ar  
     6     2    31 1   
     7     3    28 ar  
     8     3    29 ar  
     9     3    32 1   
    10     4    21 1   
    11     4    22 1   
    12     4    33 1   
    13     4    34 1   
    14     5     6 ar  
    15     5    24 ar  
    16     5    49 1   
    17     6     7 ar  
    18     6    35 1   
    19     7    22 ar  
    20     7    36 1   
    21     8     9 ar  
    22     8    13 ar  
    23     8    37 1   
    24     9    10 ar  
    25     9    38 1   
    26    10    11 1   
    27    10    12 ar  
    28    11    39 1   
    29    12    40 1   
    30    13    14 1   
    31    14    15 ar  
    32    14    16 ar  
    33    15    20 ar  
    34    15    41 1   
    35    16    17 ar  
    36    17    18 1   
    37    17    19 ar  
    38    18    42 1   
    39    18    43 1   
    40    19    20 ar  
    41    20    21 1   
    42    21    25 1   
    43    22    23 ar  
    44    23    24 ar  
    45    24    44 1   
    46    25    26 1   
    47    25    45 1   
    48    25    46 1   
    49    26    27 ar  
    50    27    28 ar  
    51    28    47 1   
    52    29    48 1   
@<TRIPOS>SUBSTRUCTURE
     1 6GM         1 TEMP              0 ****  ****    0 ROOT
