@<TRIPOS>MOLECULE
6GM
   49    52     1     0     0
SMALL
abcg2


@<TRIPOS>ATOM
      1 C10         -3.4100     1.1070     0.0860 ca         1 6GM      -0.036000
      2 C13          3.3050    -1.2720     0.7400 ca         1 6GM      -0.137500
      3 C15          5.5860    -0.7580     1.2200 ca         1 6GM      -0.161000
      4 C17          1.3840     0.8990    -1.8420 c3         1 6GM       0.178000
      5 C20          1.5410     3.6620     1.3750 ca         1 6GM      -0.161000
      6 C21          2.7050     2.9900     1.0340 ca         1 6GM      -0.077500
      7 C22          2.6740     2.0910    -0.0190 ca         1 6GM      -0.137500
      8 C06         -4.4890    -1.0180     0.2560 ca         1 6GM      -0.036000
      9 C07         -5.7050    -0.3960     0.4680 ca         1 6GM      -0.192000
     10 C08         -5.7790     0.9960     0.4920 ca         1 6GM       0.152100
     11 O01         -6.9810     1.5600     0.7010 oh         1 6GM      -0.532100
     12 C09         -4.6190     1.7450     0.3040 ca         1 6GM      -0.192000
     13 C05         -3.3190    -0.2840     0.0510 cp         1 6GM      -0.196500
     14 C04         -2.0350    -0.9760    -0.1830 cp         1 6GM       0.246500
     15 C03         -0.9650    -0.3200    -0.7640 ca         1 6GM      -0.322000
     16 N03         -1.9700    -2.2560     0.1910 nb         1 6GM      -0.285000
     17 C01         -0.8060    -2.8680    -0.0140 ca         1 6GM       0.403900
     18 N01         -0.7400    -4.1830     0.3100 nv         1 6GM      -1.052900
     19 N02          0.2950    -2.3230    -0.5230 nb         1 6GM      -0.337000
     20 C02          0.2290    -1.0490    -0.9060 ca         1 6GM       0.420900
     21 N04          1.3500    -0.4980    -1.4380 nh         1 6GM      -0.790300
     22 C18          1.4760     1.8850    -0.6970 ca         1 6GM       0.320800
     23 N06          0.3670     2.5490    -0.3820 nb         1 6GM      -0.676500
     24 C19          0.4020     3.4110     0.6270 ca         1 6GM       0.334900
     25 C11          2.5370    -1.2980    -1.6700 c3         1 6GM       0.178000
     26 C12          3.6020    -1.1290    -0.6140 ca         1 6GM       0.320800
     27 N05          4.8230    -0.8280    -1.0440 nb         1 6GM      -0.676500
     28 C16          5.7880    -0.6520    -0.1450 ca         1 6GM       0.334900
     29 C14          4.3120    -1.0800     1.6680 ca         1 6GM      -0.077500
     30 H1          -2.5260     1.7200    -0.0410 ha         1 6GM       0.130500
     31 H2           2.3030    -1.5310     1.0560 ha         1 6GM       0.135500
     32 H3           6.4030    -0.5940     1.9090 ha         1 6GM       0.123500
     33 H4           2.2500     1.0230    -2.4930 h1         1 6GM       0.075450
     34 H5           0.5090     1.1390    -2.4500 h1         1 6GM       0.075450
     35 H7           3.6260     3.1670     1.5750 ha         1 6GM       0.119500
     36 H8           3.5740     1.5730    -0.3220 ha         1 6GM       0.135500
     37 H9          -4.4450    -2.0990     0.2430 ha         1 6GM       0.130500
     38 H10         -6.6010    -0.9850     0.6150 ha         1 6GM       0.120500
     39 H11         -6.9110     2.5220     0.6870 ho         1 6GM       0.465000
     40 H12         -4.6560     2.8280     0.3340 ha         1 6GM       0.120500
     41 H13         -1.0420     0.7100    -1.0670 ha         1 6GM       0.154000
     42 H14         -1.4550    -4.5430     0.9190 hn         1 6GM       0.482500
     43 H15          0.1730    -4.5900     0.4200 hn         1 6GM       0.482500
     44 H16         -0.5240     3.9310     0.8490 h4         1 6GM       0.018100
     45 H17          2.2430    -2.3450    -1.7280 h1         1 6GM       0.075450
     46 H18          2.9640    -1.0240    -2.6360 h1         1 6GM       0.075450
     47 H19          6.7690    -0.4070    -0.5360 h4         1 6GM       0.018100
     48 H20          4.1080    -1.1790     2.7260 ha         1 6GM       0.119500
     49 H6           1.5160     4.3720     2.1900 ha         1 6GM       0.123500
@<TRIPOS>BOND
     1     1    12 ar  
     2     1    13 ar  
     3     1    30 1   
     4     2    26 ar  
     5     2    29 ar  
     6     2    31 1   
     7     3    28 ar  
     8     3    29 ar  
     9     3    32 1   
    10     4    21 1   
    11     4    22 1   
    12     4    33 1   
    13     4    34 1   
    14     5     6 ar  
    15     5    24 ar  
    16     5    49 1   
    17     6     7 ar  
    18     6    35 1   
    19     7    22 ar  
    20     7    36 1   
    21     8     9 ar  
    22     8    13 ar  
    23     8    37 1   
    24     9    10 ar  
    25     9    38 1   
    26    10    11 1   
    27    10    12 ar  
    28    11    39 1   
    29    12    40 1   
    30    13    14 1   
    31    14    15 ar  
    32    14    16 ar  
    33    15    20 ar  
    34    15    41 1   
    35    16    17 ar  
    36    17    18 1   
    37    17    19 ar  
    38    18    42 1   
    39    18    43 1   
    40    19    20 ar  
    41    20    21 1   
    42    21    25 1   
    43    22    23 ar  
    44    23    24 ar  
    45    24    44 1   
    46    25    26 1   
    47    25    45 1   
    48    25    46 1   
    49    26    27 ar  
    50    27    28 ar  
    51    28    47 1   
    52    29    48 1   
@<TRIPOS>SUBSTRUCTURE
     1 6GM         1 TEMP              0 ****  ****    0 ROOT
