@<TRIPOS>MOLECULE
6GN
   91    94     1     0     0
SMALL
No Charge or Current Charge


@<TRIPOS>ATOM
      1 C            9.9800     4.4550     2.3370 c3         1 6GN       0.150800
      2 N           11.4440     4.7210     2.3220 n8         1 6GN      -0.978200
      3 O            9.9170     2.7850     0.5490 os         1 6GN      -0.426000
      4 C2           9.4380     2.3180    -0.7280 c3         1 6GN       0.159600
      5 N2           2.7320    -3.9690     0.6840 ns         1 6GN      -0.509900
      6 O2           7.8350    -3.6830    -1.5150 o          1 6GN      -0.604100
      7 C3          10.0710     0.9380    -1.0330 c3         1 6GN       0.162600
      8 N3          -1.1140    -0.7550     0.4020 na         1 6GN       0.132300
      9 O3           2.8350    -4.0350    -1.5900 o          1 6GN      -0.611100
     10 C4           9.9800    -1.3900    -0.3640 c3         1 6GN       0.133600
     11 N4          -5.3790     2.4830     0.0500 na         1 6GN      -0.029500
     12 O4          -4.7960    -3.1760     3.0920 o          1 6GN      -0.681200
     13 C5           9.2350    -2.3400     0.6020 c3         1 6GN       0.105000
     14 C6           7.1910    -3.0440    -0.6950 c          1 6GN       0.595100
     15 C7           5.6690    -2.8880    -0.7850 c3         1 6GN      -0.151400
     16 C8           4.9290    -4.1970    -0.3920 c3         1 6GN      -0.149400
     17 C9           3.4090    -4.0500    -0.5120 c          1 6GN       0.600100
     18 C10          1.2820    -3.8040     0.8120 c3         1 6GN       0.111000
     19 C11          0.8490    -2.3460     0.5620 c3         1 6GN      -0.135400
     20 C12         -0.6820    -2.1460     0.6750 c3         1 6GN       0.029600
     21 O6          -3.7800    -2.6850     0.8940 o          1 6GN      -0.681200
     22 S           -4.9550    -2.5640     1.7660 s6         1 6GN       1.321600
     23 O5          -6.2390    -2.8470     1.1110 o          1 6GN      -0.681200
     24 C20         -5.0350    -0.7940     2.1300 c3         1 6GN      -0.367400
     25 C19         -5.1920     0.1000     0.8740 c3         1 6GN      -0.051400
     26 C18         -5.2950     1.5990     1.2330 c3         1 6GN       0.034600
     27 C21         -6.5930     2.7120    -0.5920 ca         1 6GN      -0.064200
     28 C26         -6.4960     3.6280    -1.6260 ca         1 6GN      -0.221000
     29 C25         -7.6140     3.9910    -2.3950 ca         1 6GN      -0.047000
     30 C24         -8.8590     3.4030    -2.1020 ca         1 6GN      -0.060000
     31 C23         -8.9690     2.4680    -1.0530 ca         1 6GN      -0.051000
     32 C22         -7.8370     2.1170    -0.2910 ca         1 6GN      -0.063000
     33 S1          -4.8560     4.2720    -1.8610 ss         1 6GN       0.337800
     34 C17         -4.3300     3.2150    -0.5290 cc         1 6GN       0.144200
     35 C15         -2.2360     1.8320     0.0470 ca         1 6GN       0.019700
     36 C14         -1.8480     1.3800     1.3210 ca         1 6GN      -0.155000
     37 C13         -1.2770     0.1110     1.4820 ca         1 6GN       0.009000
     38 C27         -1.9850     1.0020    -1.0810 ca         1 6GN      -0.060000
     39 C32         -1.4120    -0.2920    -0.9000 ca         1 6GN       0.049700
     40 C31         -1.1470    -1.0880    -2.0450 ca         1 6GN      -0.091000
     41 C30         -1.4530    -0.6270    -3.3340 ca         1 6GN      -0.035000
     42 C29         -2.0210     0.6400    -3.5060 ca         1 6GN      -0.064000
     43 C28         -2.2800     1.4490    -2.3910 ca         1 6GN      -0.104000
     44 N1           7.7850    -2.3920     0.3610 ns         1 6GN      -0.495900
     45 O1           9.4690    -0.0570    -0.1790 os         1 6GN      -0.458000
     46 C1           9.3840     4.0610     0.9540 c3         1 6GN       0.162600
     47 H1           9.7740     3.6540     3.0610 h1         1 6GN       0.033200
     48 H2           9.4720     5.3630     2.6890 h1         1 6GN       0.033200
     49 H3          11.6350     5.5110     1.6940 hn         1 6GN       0.392000
     50 H4          11.7320     5.0690     3.2440 hn         1 6GN       0.392000
     51 H6           8.3440     2.2290    -0.7310 h1         1 6GN       0.024700
     52 H7           9.7250     3.0210    -1.5200 h1         1 6GN       0.024700
     53 H8           3.2910    -4.0030     1.5300 hn         1 6GN       0.325500
     54 H9           9.8890     0.6930    -2.0880 h1         1 6GN       0.034200
     55 H10         11.1570     0.9900    -0.8770 h1         1 6GN       0.034200
     56 H11         11.0560    -1.4270    -0.1450 h1         1 6GN       0.037700
     57 H12          9.8300    -1.7260    -1.3990 h1         1 6GN       0.037700
     58 H13          9.6490    -3.3520     0.5010 h1         1 6GN       0.066700
     59 H14          9.4100    -2.0110     1.6340 h1         1 6GN       0.066700
     60 H15          5.3340    -2.0840    -0.1190 hc         1 6GN       0.066700
     61 H16          5.4080    -2.6390    -1.8210 hc         1 6GN       0.066700
     62 H17          5.2510    -4.9970    -1.0690 hc         1 6GN       0.080200
     63 H18          5.2010    -4.4550     0.6380 hc         1 6GN       0.080200
     64 H19          0.7810    -4.4700     0.0960 h1         1 6GN       0.068700
     65 H20          0.9810    -4.1110     1.8240 h1         1 6GN       0.068700
     66 H21          1.3540    -1.6930     1.2850 hc         1 6GN       0.060700
     67 H22          1.1870    -2.0350    -0.4340 hc         1 6GN       0.060700
     68 H23         -1.0070    -2.4190     1.6880 h1         1 6GN       0.120200
     69 H24         -1.2120    -2.8300     0.0010 h1         1 6GN       0.120200
     70 H25         -5.8870    -0.6620     2.8050 h1         1 6GN       0.075200
     71 H26         -4.1100    -0.5500     2.6630 h1         1 6GN       0.075200
     72 H27         -4.3390    -0.0570     0.2030 hc         1 6GN       0.069200
     73 H28         -6.0870    -0.2010     0.3150 hc         1 6GN       0.069200
     74 H29         -4.4270     1.8910     1.8340 h1         1 6GN       0.082200
     75 H30         -6.1750     1.7650     1.8670 h1         1 6GN       0.082200
     76 H31         -7.5250     4.7140    -3.2050 ha         1 6GN       0.152000
     77 H32         -9.7370     3.6710    -2.6860 ha         1 6GN       0.153000
     78 H33         -9.9330     2.0160    -0.8300 ha         1 6GN       0.157000
     79 H34         -7.9440     1.3930     0.5130 ha         1 6GN       0.162000
     80 H35         -2.2840     3.8460    -0.7250 hc         1 6GN       0.103700
     81 H36         -2.8480     3.7310     0.9090 hc         1 6GN       0.103700
     82 H37         -1.9870     2.0090     2.1980 ha         1 6GN       0.160000
     83 H38         -0.9660    -0.2420     2.4670 h4         1 6GN       0.188000
     84 H39         -0.6960    -2.0730    -1.9640 ha         1 6GN       0.164000
     85 H40         -1.2450    -1.2510    -4.2010 ha         1 6GN       0.156000
     86 H41         -2.2520     1.0000    -4.5070 ha         1 6GN       0.145000
     87 H42         -2.6960     2.4330    -2.5750 ha         1 6GN       0.113000
     88 H43          7.1760    -1.8640     0.9750 hn         1 6GN       0.316500
     89 H44          8.2910     4.0040     1.0420 h1         1 6GN       0.014700
     90 H45          9.6250     4.8370     0.2150 h1         1 6GN       0.014700
     91 C16         -2.8880     3.2170    -0.0590 c3         1 6GN      -0.082400
@<TRIPOS>BOND
     1     1     2 1   
     2     1    46 1   
     3     1    47 1   
     4     1    48 1   
     5     2    49 1   
     6     2    50 1   
     7     3     4 1   
     8     3    46 1   
     9     4     7 1   
    10     4    51 1   
    11     4    52 1   
    12     5    17 1   
    13     5    18 1   
    14     5    53 1   
    15     6    14 2   
    16     7    45 1   
    17     7    54 1   
    18     7    55 1   
    19     8    20 1   
    20     8    37 1   
    21     8    39 2   
    22     9    17 2   
    23    10    13 1   
    24    10    45 1   
    25    10    56 1   
    26    10    57 1   
    27    11    26 1   
    28    11    27 1   
    29    11    34 2   
    30    12    22 1   
    31    13    44 1   
    32    13    58 1   
    33    13    59 1   
    34    14    15 1   
    35    14    44 1   
    36    15    16 1   
    37    15    60 1   
    38    15    61 1   
    39    16    17 1   
    40    16    62 1   
    41    16    63 1   
    42    18    19 1   
    43    18    64 1   
    44    18    65 1   
    45    19    20 1   
    46    19    66 1   
    47    19    67 1   
    48    20    68 1   
    49    20    69 1   
    50    21    22 1   
    51    22    23 1   
    52    22    24 1   
    53    24    25 1   
    54    24    70 1   
    55    24    71 1   
    56    25    26 1   
    57    25    72 1   
    58    25    73 1   
    59    26    74 1   
    60    26    75 1   
    61    27    28 ar  
    62    27    32 ar  
    63    28    29 ar  
    64    28    33 1   
    65    29    30 ar  
    66    29    76 1   
    67    30    31 ar  
    68    30    77 1   
    69    31    32 ar  
    70    31    78 1   
    71    32    79 1   
    72    33    34 1   
    73    34    91 1   
    74    35    36 ar  
    75    35    38 ar  
    76    35    91 1   
    77    36    37 ar  
    78    36    82 1   
    79    37    83 1   
    80    38    39 ar  
    81    38    43 ar  
    82    39    40 ar  
    83    40    41 ar  
    84    40    84 1   
    85    41    42 ar  
    86    41    85 1   
    87    42    43 ar  
    88    42    86 1   
    89    43    87 1   
    90    44    88 1   
    91    46    89 1   
    92    46    90 1   
    93    80    91 1   
    94    81    91 1   
@<TRIPOS>SUBSTRUCTURE
     1 6GN         1 TEMP              0 ****  ****    0 ROOT
