@<TRIPOS>MOLECULE
6GN
   91    94     1     0     0
SMALL
abcg2


@<TRIPOS>ATOM
      1 C           10.3140     5.0740     0.4820 c3         1 6GN       0.150800
      2 N           11.7220     5.0730     0.8470 n8         1 6GN      -0.978200
      3 O           10.3610     2.8620    -0.4420 os         1 6GN      -0.426000
      4 C2          10.1060     2.0080    -1.5260 c3         1 6GN       0.159600
      5 N2           2.5050    -4.1210     0.7060 ns         1 6GN      -0.509900
      6 O2           7.7440    -3.7750     0.2710 o          1 6GN      -0.604100
      7 C3          10.5240     0.6030    -1.1770 c3         1 6GN       0.162600
      8 N3          -1.5790    -1.3660     0.5540 na         1 6GN       0.132300
      9 O3           3.2000    -3.1130    -1.1850 o          1 6GN      -0.611100
     10 C4          10.0580    -1.1960     0.2470 c3         1 6GN       0.133600
     11 N4          -5.5840     2.2600     0.4760 na         1 6GN      -0.029500
     12 O4          -5.4370    -4.0520     1.2120 o          1 6GN      -0.681200
     13 C5           9.1610    -1.6230     1.3920 c3         1 6GN       0.105000
     14 C6           7.1590    -2.7210     0.4890 c          1 6GN       0.595100
     15 C7           5.7010    -2.5220     0.1330 c3         1 6GN      -0.151400
     16 C8           4.8750    -3.7720     0.4010 c3         1 6GN      -0.149400
     17 C9           3.4550    -3.6240    -0.1030 c          1 6GN       0.600100
     18 C10          1.0980    -4.0700     0.3920 c3         1 6GN       0.111000
     19 C11          0.4880    -2.6990     0.6730 c3         1 6GN      -0.135400
     20 C12         -1.0120    -2.7190     0.4220 c3         1 6GN       0.029600
     21 O6          -4.0110    -2.7060    -0.2860 o          1 6GN      -0.681200
     22 S           -5.3690    -2.9390     0.2480 s6         1 6GN       1.321600
     23 O5          -6.3960    -3.0100    -0.8080 o          1 6GN      -0.681200
     24 C20         -5.7590    -1.4610     1.2040 c3         1 6GN      -0.367400
     25 C19         -5.6740    -0.2050     0.3560 c3         1 6GN      -0.051400
     26 C18         -5.8280     1.0300     1.2320 c3         1 6GN       0.034600
     27 C21         -6.5790     2.8430    -0.3010 ca         1 6GN      -0.064200
     28 C26         -6.1360     4.0110    -0.9140 ca         1 6GN      -0.221000
     29 C25         -6.9690     4.7650    -1.7310 ca         1 6GN      -0.047000
     30 C24         -8.2580     4.3070    -1.9150 ca         1 6GN      -0.060000
     31 C23         -8.7060     3.1330    -1.2980 ca         1 6GN      -0.051000
     32 C22         -7.8800     2.3850    -0.4850 ca         1 6GN      -0.063000
     33 S1          -4.4910     4.3150    -0.4880 ss         1 6GN       0.337800
     34 C17         -4.4380     2.9070     0.4570 cc         1 6GN       0.144200
     35 C15         -2.6310     1.1720     0.9500 ca         1 6GN       0.019700
     36 C14         -2.6170     0.2380     1.9530 ca         1 6GN      -0.155000
     37 C13         -2.0930    -1.0260     1.7170 ca         1 6GN       0.009000
     38 C27         -2.0510     0.8330    -0.2980 ca         1 6GN      -0.060000
     39 C32         -1.5250    -0.4710    -0.4860 ca         1 6GN       0.049700
     40 C31         -0.9400    -0.8230    -1.7150 ca         1 6GN      -0.091000
     41 C30         -0.8720     0.0980    -2.7250 ca         1 6GN      -0.035000
     42 C29         -1.3730     1.3980    -2.5510 ca         1 6GN      -0.064000
     43 C28         -1.9490     1.7530    -1.3640 ca         1 6GN      -0.104000
     44 N1           7.7590    -1.6570     1.0460 ns         1 6GN      -0.495900
     45 O1           9.7210     0.1140    -0.1330 os         1 6GN      -0.458000
     46 C1          10.0400     4.2010    -0.7220 c3         1 6GN       0.162600
     47 H1           9.7330     4.7050     1.3320 h1         1 6GN       0.033200
     48 H2           9.9150     6.0700     0.2460 h1         1 6GN       0.033200
     49 H3          12.2610     5.4980     0.1010 hn         1 6GN       0.392000
     50 H4          11.8570     5.6710     1.6520 hn         1 6GN       0.392000
     51 H6           9.0420     2.0260    -1.8040 h1         1 6GN       0.024700
     52 H7          10.6690     2.3190    -2.4170 h1         1 6GN       0.024700
     53 H8           2.7720    -4.4810     1.6070 hn         1 6GN       0.325500
     54 H9          10.4260    -0.0200    -2.0770 h1         1 6GN       0.034200
     55 H10         11.5870     0.5870    -0.8960 h1         1 6GN       0.034200
     56 H11         11.1040    -1.2560     0.5790 h1         1 6GN       0.037700
     57 H12          9.9490    -1.8920    -0.5960 h1         1 6GN       0.037700
     58 H13          9.4740    -2.6110     1.7310 h1         1 6GN       0.066700
     59 H14          9.2840    -0.9400     2.2330 h1         1 6GN       0.066700
     60 H15          5.2840    -1.6690     0.6720 hc         1 6GN       0.066700
     61 H16          5.6520    -2.2710    -0.9300 hc         1 6GN       0.066700
     62 H17          5.3200    -4.6260    -0.1170 hc         1 6GN       0.080200
     63 H18          4.8890    -4.0130     1.4660 hc         1 6GN       0.080200
     64 H19          0.9500    -4.3370    -0.6560 h1         1 6GN       0.068700
     65 H20          0.6010    -4.8340     0.9890 h1         1 6GN       0.068700
     66 H21          0.6750    -2.4180     1.7120 hc         1 6GN       0.060700
     67 H22          0.9740    -1.9520     0.0440 hc         1 6GN       0.060700
     68 H23         -1.5210    -3.3490     1.1470 h1         1 6GN       0.120200
     69 H24         -1.2720    -3.1110    -0.5580 h1         1 6GN       0.120200
     70 H25         -6.7570    -1.5900     1.6290 h1         1 6GN       0.075200
     71 H26         -5.0500    -1.4260     2.0350 h1         1 6GN       0.075200
     72 H27         -4.7110    -0.1760    -0.1560 hc         1 6GN       0.069200
     73 H28         -6.4430    -0.2190    -0.4190 hc         1 6GN       0.069200
     74 H29         -5.1450     1.0180     2.0790 h1         1 6GN       0.082200
     75 H30         -6.8290     1.1030     1.6550 h1         1 6GN       0.082200
     76 H31         -6.6190     5.6730    -2.2020 ha         1 6GN       0.152000
     77 H32         -8.9330     4.8650    -2.5490 ha         1 6GN       0.153000
     78 H33         -9.7230     2.8030    -1.4610 ha         1 6GN       0.157000
     79 H34         -8.2410     1.4810    -0.0140 ha         1 6GN       0.162000
     80 H35         -2.4460     3.2990     1.0420 hc         1 6GN       0.103700
     81 H36         -3.4510     2.6220     2.2890 hc         1 6GN       0.103700
     82 H37         -3.0100     0.4510     2.9370 ha         1 6GN       0.160000
     83 H38         -2.0910    -1.7780     2.4930 h4         1 6GN       0.188000
     84 H39         -0.5350    -1.8080    -1.8840 ha         1 6GN       0.164000
     85 H40         -0.4180    -0.1820    -3.6650 ha         1 6GN       0.156000
     86 H41         -1.2970     2.1190    -3.3520 ha         1 6GN       0.145000
     87 H42         -2.3080     2.7640    -1.2460 ha         1 6GN       0.113000
     88 H43          7.2240    -0.8150     1.1740 hn         1 6GN       0.316500
     89 H44          8.9800     4.3010    -0.9960 h1         1 6GN       0.014700
     90 H45         10.6200     4.5650    -1.5850 h1         1 6GN       0.014700
     91 C16         -3.2090     2.5400     1.2270 c3         1 6GN      -0.082400
@<TRIPOS>BOND
     1     1     2 1   
     2     1    46 1   
     3     1    47 1   
     4     1    48 1   
     5     2    49 1   
     6     2    50 1   
     7     3     4 1   
     8     3    46 1   
     9     4     7 1   
    10     4    51 1   
    11     4    52 1   
    12     5    17 1   
    13     5    18 1   
    14     5    53 1   
    15     6    14 2   
    16     7    45 1   
    17     7    54 1   
    18     7    55 1   
    19     8    20 1   
    20     8    37 1   
    21     8    39 2   
    22     9    17 2   
    23    10    13 1   
    24    10    45 1   
    25    10    56 1   
    26    10    57 1   
    27    11    26 1   
    28    11    27 1   
    29    11    34 2   
    30    12    22 1   
    31    13    44 1   
    32    13    58 1   
    33    13    59 1   
    34    14    15 1   
    35    14    44 1   
    36    15    16 1   
    37    15    60 1   
    38    15    61 1   
    39    16    17 1   
    40    16    62 1   
    41    16    63 1   
    42    18    19 1   
    43    18    64 1   
    44    18    65 1   
    45    19    20 1   
    46    19    66 1   
    47    19    67 1   
    48    20    68 1   
    49    20    69 1   
    50    21    22 1   
    51    22    23 1   
    52    22    24 1   
    53    24    25 1   
    54    24    70 1   
    55    24    71 1   
    56    25    26 1   
    57    25    72 1   
    58    25    73 1   
    59    26    74 1   
    60    26    75 1   
    61    27    28 ar  
    62    27    32 ar  
    63    28    29 ar  
    64    28    33 1   
    65    29    30 ar  
    66    29    76 1   
    67    30    31 ar  
    68    30    77 1   
    69    31    32 ar  
    70    31    78 1   
    71    32    79 1   
    72    33    34 1   
    73    34    91 1   
    74    35    36 ar  
    75    35    38 ar  
    76    35    91 1   
    77    36    37 ar  
    78    36    82 1   
    79    37    83 1   
    80    38    39 ar  
    81    38    43 ar  
    82    39    40 ar  
    83    40    41 ar  
    84    40    84 1   
    85    41    42 ar  
    86    41    85 1   
    87    42    43 ar  
    88    42    86 1   
    89    43    87 1   
    90    44    88 1   
    91    46    89 1   
    92    46    90 1   
    93    80    91 1   
    94    81    91 1   
@<TRIPOS>SUBSTRUCTURE
     1 6GN         1 TEMP              0 ****  ****    0 ROOT
