@<TRIPOS>MOLECULE
6GP
   33    33     1     0     0
SMALL
No Charge or Current Charge


@<TRIPOS>ATOM
      1 C1          -0.2590     0.4640     0.4040 c6         1 6GP       0.303700
      2 C2          -1.1150     1.6740    -0.1050 c6         1 6GP       0.099300
      3 O2          -0.6940     2.9340     0.4740 oh         1 6GP      -0.715000
      4 C3          -2.6080     1.4150     0.2440 c6         1 6GP       0.139300
      5 O3          -3.4240     2.4940    -0.2440 oh         1 6GP      -0.665000
      6 C4          -3.0780     0.0540    -0.3460 c6         1 6GP       0.143300
      7 O4          -4.4520    -0.1830     0.0180 oh         1 6GP      -0.715000
      8 C5          -2.1270    -1.0770     0.1560 c6         1 6GP       0.178300
      9 O5          -0.7530    -0.7510    -0.1920 os         1 6GP      -0.456000
     10 C6          -2.4780    -2.4700    -0.4660 c3         1 6GP       0.172600
     11 O6          -1.5800    -3.5240    -0.0590 oh         1 6GP      -0.707000
     12 N1           1.1340     0.5720    -0.0110 ns         1 6GP      -0.489900
     13 C7           2.1850    -0.1220     0.5630 c          1 6GP       0.557100
     14 O7           2.0450    -0.7860     1.5880 o          1 6GP      -0.528100
     15 C8           3.5850     0.0280    -0.2060 c          1 6GP       0.509100
     16 O8           3.7110     0.7090    -1.2230 o          1 6GP      -0.489000
     17 C9           5.9230    -0.5960    -0.2410 c3         1 6GP       0.145900
     18 O9           4.6230    -0.6690     0.3760 os         1 6GP      -0.393100
     19 H1          -0.3140     0.3980     1.5020 h2         1 6GP       0.086700
     20 H2          -1.0210     1.7180    -1.2010 h1         1 6GP       0.054700
     21 HO2          0.2670     3.0490     0.2800 ho         1 6GP       0.517000
     22 H3          -2.6910     1.3590     1.3400 h1         1 6GP       0.058700
     23 HO3         -2.8820     3.3030    -0.0880 ho         1 6GP       0.466000
     24 H4          -2.9920     0.1080    -1.4420 h1         1 6GP       0.053700
     25 HO4         -4.8920     0.6980    -0.0700 ho         1 6GP       0.526000
     26 H5          -2.2050    -1.1630     1.2500 h1         1 6GP       0.066700
     27 H61         -3.5060    -2.7250    -0.1780 h1         1 6GP       0.036200
     28 H62         -2.4640    -2.3660    -1.5600 h1         1 6GP       0.036200
     29 HO6         -1.8460    -4.3350    -0.5520 ho         1 6GP       0.504000
     30 HN1          1.3420     1.0540    -0.8780 hn         1 6GP       0.339500
     31 H91          6.2860     0.4390    -0.2690 h1         1 6GP       0.054700
     32 H92          6.6480    -1.1950     0.3250 h1         1 6GP       0.054700
     33 H93          5.8910    -0.9820    -1.2680 h1         1 6GP       0.054700
@<TRIPOS>BOND
     1     1     2 1   
     2     1     9 1   
     3     1    12 1   
     4     1    19 1   
     5     2     3 1   
     6     2     4 1   
     7     2    20 1   
     8     3    21 1   
     9     4     5 1   
    10     4     6 1   
    11     4    22 1   
    12     5    23 1   
    13     6     7 1   
    14     6     8 1   
    15     6    24 1   
    16     7    25 1   
    17     8     9 1   
    18     8    10 1   
    19     8    26 1   
    20    10    11 1   
    21    10    27 1   
    22    10    28 1   
    23    11    29 1   
    24    12    13 1   
    25    12    30 1   
    26    13    14 2   
    27    13    15 1   
    28    15    16 2   
    29    15    18 1   
    30    17    18 1   
    31    17    31 1   
    32    17    32 1   
    33    17    33 1   
@<TRIPOS>SUBSTRUCTURE
     1 6GP         1 TEMP              0 ****  ****    0 ROOT
