@<TRIPOS>MOLECULE
6GP
   33    33     1     0     0
SMALL
bcc


@<TRIPOS>ATOM
      1 C1          -0.2050     0.2620     0.2450 c6         1 6GP       0.280500
      2 C2          -0.9580     1.5400    -0.1320 c6         1 6GP       0.076100
      3 O2          -0.4320     2.6590     0.5340 oh         1 6GP      -0.592800
      4 C3          -2.4160     1.3930     0.2810 c6         1 6GP       0.116100
      5 O3          -3.2010     2.4670    -0.1730 oh         1 6GP      -0.602800
      6 C4          -3.0120     0.1130    -0.2950 c6         1 6GP       0.120100
      7 O4          -4.3050    -0.1180     0.2030 oh         1 6GP      -0.592800
      8 C5          -2.1340    -1.0800     0.0890 c6         1 6GP       0.155100
      9 O5          -0.8100    -0.8560    -0.3540 os         1 6GP      -0.409600
     10 C6          -2.6190    -2.3700    -0.5390 c3         1 6GP       0.149400
     11 O6          -1.8110    -3.4260    -0.0790 oh         1 6GP      -0.584800
     12 N1           1.1490     0.3260    -0.2050 ns         1 6GP      -0.556900
     13 C7           2.1900    -0.1380     0.5030 c          1 6GP       0.624100
     14 O7           2.1460    -0.6130     1.6160 o          1 6GP      -0.528100
     15 C8           3.5180     0.0050    -0.2590 c          1 6GP       0.558100
     16 O8           3.5850     0.4240    -1.3850 o          1 6GP      -0.538000
     17 C9           5.8310    -0.3180    -0.1020 c3         1 6GP       0.122700
     18 O9           4.5230    -0.3870     0.4780 os         1 6GP      -0.369900
     19 H1          -0.2010     0.1590     1.3380 h2         1 6GP       0.086700
     20 H2          -0.9120     1.6620    -1.2250 h1         1 6GP       0.054700
     21 HO2          0.3810     2.9320     0.0970 ho         1 6GP       0.418000
     22 H3          -2.4550     1.3170     1.3790 h1         1 6GP       0.058700
     23 HO3         -2.9760     3.2500     0.3390 ho         1 6GP       0.427000
     24 H4          -3.0180     0.1970    -1.3940 h1         1 6GP       0.053700
     25 HO4         -4.8620     0.6260    -0.0500 ho         1 6GP       0.427000
     26 H5          -2.1500    -1.1880     1.1860 h1         1 6GP       0.066700
     27 H61         -3.6700    -2.5110    -0.2650 h1         1 6GP       0.036200
     28 H62         -2.5800    -2.2710    -1.6330 h1         1 6GP       0.036200
     29 HO6         -2.1620    -4.2460    -0.4380 ho         1 6GP       0.405000
     30 HN1          1.3250     0.6420    -1.1490 hn         1 6GP       0.339500
     31 H91          6.0850     0.7060    -0.3720 h1         1 6GP       0.054700
     32 H92          6.5130    -0.6740     0.6640 h1         1 6GP       0.054700
     33 H93          5.9020    -0.9570    -0.9820 h1         1 6GP       0.054700
@<TRIPOS>BOND
     1     1     2 1   
     2     1     9 1   
     3     1    12 1   
     4     1    19 1   
     5     2     3 1   
     6     2     4 1   
     7     2    20 1   
     8     3    21 1   
     9     4     5 1   
    10     4     6 1   
    11     4    22 1   
    12     5    23 1   
    13     6     7 1   
    14     6     8 1   
    15     6    24 1   
    16     7    25 1   
    17     8     9 1   
    18     8    10 1   
    19     8    26 1   
    20    10    11 1   
    21    10    27 1   
    22    10    28 1   
    23    11    29 1   
    24    12    13 1   
    25    12    30 1   
    26    13    14 2   
    27    13    15 1   
    28    15    16 2   
    29    15    18 1   
    30    17    18 1   
    31    17    31 1   
    32    17    32 1   
    33    17    33 1   
@<TRIPOS>SUBSTRUCTURE
     1 6GP         1 TEMP              0 ****  ****    0 ROOT
