@<TRIPOS>MOLECULE
6GQ
   51    53     1     0     0
SMALL
abcg2


@<TRIPOS>ATOM
      1 O2           0.1510    -2.9950    -0.1900 o          1 6GQ      -0.570100
      2 O1          -3.8000    -2.2690    -1.4190 o          1 6GQ      -0.531500
      3 N           -2.1580    -1.7790     0.3940 n3         1 6GQ      -0.750500
      4 C           -6.0600     3.5940     0.7730 c3         1 6GQ      -0.057800
      5 O           -1.8010    -0.8040    -1.8640 o          1 6GQ      -0.531500
      6 C8          -0.9450    -1.1350     0.8360 c3         1 6GQ       0.144800
      7 C5          -3.2800     1.4510    -0.6780 ca         1 6GQ      -0.013500
      8 C4          -3.8150     0.1800    -0.5210 ca         1 6GQ      -0.310500
      9 N3           4.9910     1.9870     0.6020 nb         1 6GQ      -0.752000
     10 C2          -5.7940     1.1160     0.4500 ca         1 6GQ      -0.134000
     11 N1           1.4800    -1.4760     0.8210 n          1 6GQ      -0.419800
     12 C6          -4.0160     2.5510    -0.2640 ca         1 6GQ      -0.134000
     13 C9           0.2820    -1.9560     0.4330 c          1 6GQ       0.603100
     14 C7          -2.9290    -2.5180     1.3790 c3         1 6GQ       0.205100
     15 S           -2.8690    -1.2430    -0.9800 sy         1 6GQ       1.192600
     16 C3          -5.0760     0.0070     0.0390 ca         1 6GQ      -0.013500
     17 C1          -5.2770     2.4040     0.3080 ca         1 6GQ      -0.020300
     18 C13          1.7170    -0.2330     1.5280 c6         1 6GQ       0.090000
     19 C12          2.5840     0.6910     0.6920 c6         1 6GQ       0.194300
     20 N2           3.8140     0.0270     0.2940 nh         1 6GQ      -0.776300
     21 C11          3.6070    -1.2470    -0.3650 c6         1 6GQ       0.194300
     22 C10          2.7150    -2.1490     0.4730 c6         1 6GQ       0.090000
     23 C14          4.9340     0.7820     0.0340 ca         1 6GQ       0.615900
     24 C18          6.0700     2.7380     0.4320 ca         1 6GQ       0.384900
     25 C17          7.1690     2.3560    -0.3140 ca         1 6GQ      -0.218000
     26 C16          7.1070     1.1100    -0.9290 ca         1 6GQ      -0.037000
     27 C15          5.9920     0.3150    -0.7720 ca         1 6GQ      -0.226000
     28 H1          -6.0340     3.6690     1.8620 hc         1 6GQ       0.049033
     29 H2          -5.6580     4.5220     0.3690 hc         1 6GQ       0.049033
     30 H3          -7.1070     3.5190     0.4810 hc         1 6GQ       0.049033
     31 H4          -0.8630    -0.1180     0.4460 h1         1 6GQ       0.063700
     32 H5          -0.9880    -1.0250     1.9220 h1         1 6GQ       0.063700
     33 H6          -2.3080     1.5980    -1.1300 ha         1 6GQ       0.133000
     34 H7          -6.7770     0.9750     0.8820 ha         1 6GQ       0.117000
     35 H8          -3.6000     3.5420    -0.3990 ha         1 6GQ       0.117000
     36 H9          -3.4590    -1.8590     2.0710 h1         1 6GQ       0.050700
     37 H10         -3.6450    -3.1750     0.8940 h1         1 6GQ       0.050700
     38 H11         -2.2450    -3.1440     1.9480 h1         1 6GQ       0.050700
     39 H12         -5.5080    -0.9790     0.1490 ha         1 6GQ       0.133000
     40 H13          0.7870     0.2740     1.7680 h1         1 6GQ       0.061200
     41 H14          2.2170    -0.4550     2.4760 h1         1 6GQ       0.061200
     42 H15          2.0190     1.0120    -0.1950 h1         1 6GQ       0.058450
     43 H16          2.8230     1.5780     1.2700 h1         1 6GQ       0.058450
     44 H17          3.1680    -1.1110    -1.3630 h1         1 6GQ       0.058450
     45 H18          4.5550    -1.7660    -0.4900 h1         1 6GQ       0.058450
     46 H19          3.2380    -2.4260     1.3930 h1         1 6GQ       0.061200
     47 H20          2.4980    -3.0600    -0.0770 h1         1 6GQ       0.061200
     48 H21          6.0530     3.7050     0.9230 h4         1 6GQ       0.014100
     49 H22          8.0250     3.0070    -0.4180 ha         1 6GQ       0.125000
     50 H23          7.9250     0.7590    -1.5460 ha         1 6GQ       0.115000
     51 H24          5.9490    -0.6370    -1.2800 ha         1 6GQ       0.122000
@<TRIPOS>BOND
     1     1    13 2   
     2     2    15 2   
     3     3     6 1   
     4     3    14 1   
     5     3    15 1   
     6     4    17 1   
     7     4    28 1   
     8     4    29 1   
     9     4    30 1   
    10     5    15 2   
    11     6    13 1   
    12     6    31 1   
    13     6    32 1   
    14     7     8 ar  
    15     7    12 ar  
    16     7    33 1   
    17     8    15 1   
    18     8    16 ar  
    19     9    23 ar  
    20     9    24 ar  
    21    10    16 ar  
    22    10    17 ar  
    23    10    34 1   
    24    11    13 1   
    25    11    18 1   
    26    11    22 1   
    27    12    17 ar  
    28    12    35 1   
    29    14    36 1   
    30    14    37 1   
    31    14    38 1   
    32    16    39 1   
    33    18    19 1   
    34    18    40 1   
    35    18    41 1   
    36    19    20 1   
    37    19    42 1   
    38    19    43 1   
    39    20    21 1   
    40    20    23 1   
    41    21    22 1   
    42    21    44 1   
    43    21    45 1   
    44    22    46 1   
    45    22    47 1   
    46    23    27 ar  
    47    24    25 ar  
    48    24    48 1   
    49    25    26 ar  
    50    25    49 1   
    51    26    27 ar  
    52    26    50 1   
    53    27    51 1   
@<TRIPOS>SUBSTRUCTURE
     1 6GQ         1 TEMP              0 ****  ****    0 ROOT
