@<TRIPOS>MOLECULE
6GQ
   51    53     1     0     0
SMALL
No Charge or Current Charge


@<TRIPOS>ATOM
      1 O2           0.1060    -2.7180    -0.4770 o          1 6GQ      -0.570100
      2 O1          -2.6810    -1.6280    -1.5770 o          1 6GQ      -0.531500
      3 N           -2.1020    -1.2440     0.8850 n3         1 6GQ      -0.750500
      4 C           -7.4100     2.9070     0.1330 c3         1 6GQ      -0.057800
      5 O           -1.2460     0.3900    -0.8870 o          1 6GQ      -0.531500
      6 C8          -0.6690    -1.2660     1.3370 c3         1 6GQ       0.144800
      7 C5          -3.7350     1.8200     0.0060 ca         1 6GQ      -0.013500
      8 C4          -3.8480     0.4810    -0.4250 ca         1 6GQ      -0.310500
      9 N3           5.8300     1.1690     1.0230 nb         1 6GQ      -0.752000
     10 C2          -6.2730     0.7250    -0.4990 ca         1 6GQ      -0.134000
     11 N1           1.7790    -1.8640     0.8310 n          1 6GQ      -0.419800
     12 C6          -4.8890     2.6000     0.1860 ca         1 6GQ      -0.134000
     13 C9           0.4130    -2.0010     0.4700 c          1 6GQ       0.603100
     14 C7          -3.0380    -0.8460     1.9580 c3         1 6GQ       0.205100
     15 S           -2.3660    -0.5300    -0.6560 sy         1 6GQ       1.192600
     16 C3          -5.1240    -0.0630    -0.6810 ca         1 6GQ      -0.013500
     17 C1          -6.1630     2.0600    -0.0670 ca         1 6GQ      -0.020300
     18 C13          2.2990    -0.9140     1.8530 c6         1 6GQ       0.090000
     19 C12          3.1040     0.2380     1.1920 c6         1 6GQ       0.194300
     20 N2           4.1770    -0.2720     0.2710 nh         1 6GQ      -0.776300
     21 C11          3.7110    -1.3320    -0.6820 c6         1 6GQ       0.194300
     22 C10          2.8830    -2.4440     0.0210 c6         1 6GQ       0.090000
     23 C14          5.3010     0.5220    -0.0310 ca         1 6GQ       0.615900
     24 C18          6.9160     1.9440     0.8130 ca         1 6GQ       0.384900
     25 C17          7.5110     2.1020    -0.4480 ca         1 6GQ      -0.218000
     26 C16          6.9630     1.4320    -1.5500 ca         1 6GQ      -0.037000
     27 C15          5.8360     0.6270    -1.3310 ca         1 6GQ      -0.226000
     28 H1          -7.7850     2.8120     1.1580 hc         1 6GQ       0.049033
     29 H2          -7.2060     3.9680    -0.0540 hc         1 6GQ       0.049033
     30 H3          -8.2140     2.6020    -0.5480 hc         1 6GQ       0.049033
     31 H4          -0.3270    -0.2310     1.4610 h1         1 6GQ       0.063700
     32 H5          -0.6040    -1.7330     2.3280 h1         1 6GQ       0.063700
     33 H6          -2.7580     2.2570     0.2090 ha         1 6GQ       0.133000
     34 H7          -7.2530     0.2950    -0.6950 ha         1 6GQ       0.117000
     35 H8          -4.7920     3.6300     0.5230 ha         1 6GQ       0.117000
     36 H9          -2.9420     0.2220     2.1950 h1         1 6GQ       0.050700
     37 H10         -4.0790    -1.0540     1.6790 h1         1 6GQ       0.050700
     38 H11         -2.8350    -1.4120     2.8770 h1         1 6GQ       0.050700
     39 H12         -5.2310    -1.0940    -1.0140 ha         1 6GQ       0.133000
     40 H13          1.5020    -0.4950     2.4800 h1         1 6GQ       0.061200
     41 H14          2.9680    -1.4630     2.5300 h1         1 6GQ       0.061200
     42 H15          2.4080     0.8770     0.6280 h1         1 6GQ       0.058450
     43 H16          3.5240     0.8560     1.9990 h1         1 6GQ       0.058450
     44 H17          3.0950    -0.8780    -1.4720 h1         1 6GQ       0.058450
     45 H18          4.5710    -1.8150    -1.1700 h1         1 6GQ       0.058450
     46 H19          3.5450    -3.0180     0.6850 h1         1 6GQ       0.061200
     47 H20          2.5010    -3.1450    -0.7340 h1         1 6GQ       0.061200
     48 H21          7.3230     2.4550     1.6850 h4         1 6GQ       0.014100
     49 H22          8.3840     2.7390    -0.5620 ha         1 6GQ       0.125000
     50 H23          7.3960     1.5350    -2.5430 ha         1 6GQ       0.115000
     51 H24          5.3820     0.1050    -2.1660 ha         1 6GQ       0.122000
@<TRIPOS>BOND
     1     1    13 2   
     2     2    15 2   
     3     3     6 1   
     4     3    14 1   
     5     3    15 1   
     6     4    17 1   
     7     4    28 1   
     8     4    29 1   
     9     4    30 1   
    10     5    15 2   
    11     6    13 1   
    12     6    31 1   
    13     6    32 1   
    14     7     8 ar  
    15     7    12 ar  
    16     7    33 1   
    17     8    15 1   
    18     8    16 ar  
    19     9    23 ar  
    20     9    24 ar  
    21    10    16 ar  
    22    10    17 ar  
    23    10    34 1   
    24    11    13 1   
    25    11    18 1   
    26    11    22 1   
    27    12    17 ar  
    28    12    35 1   
    29    14    36 1   
    30    14    37 1   
    31    14    38 1   
    32    16    39 1   
    33    18    19 1   
    34    18    40 1   
    35    18    41 1   
    36    19    20 1   
    37    19    42 1   
    38    19    43 1   
    39    20    21 1   
    40    20    23 1   
    41    21    22 1   
    42    21    44 1   
    43    21    45 1   
    44    22    46 1   
    45    22    47 1   
    46    23    27 ar  
    47    24    25 ar  
    48    24    48 1   
    49    25    26 ar  
    50    25    49 1   
    51    26    27 ar  
    52    26    50 1   
    53    27    51 1   
@<TRIPOS>SUBSTRUCTURE
     1 6GQ         1 TEMP              0 ****  ****    0 ROOT
