@<TRIPOS>MOLECULE
6GR
   36    37     1     0     0
SMALL
No Charge or Current Charge


@<TRIPOS>ATOM
      1 C3           2.4080     1.5090    -0.4240 c6         1 6GR       0.186300
      2 C2           2.0110     0.8420    -1.7870 c6         1 6GR       0.101300
      3 C4           2.7620     0.4230     0.6450 c6         1 6GR       0.109300
      4 C5           1.6550    -0.6780     0.7360 c6         1 6GR       0.165300
      5 C6           2.0840    -1.8610     1.6670 c3         1 6GR       0.169600
      6 C1           0.9000    -0.2410    -1.5510 c6         1 6GR       0.365300
      7 OAA         -0.8950     1.7040     1.2190 o          1 6GR      -0.716500
      8 OAC         -3.0040     2.1350     1.2220 o          1 6GR      -0.716500
      9 CAP         -2.3290     0.1350     0.1940 ca         1 6GR      -0.147600
     10 CAJ         -3.4980    -0.6010     0.4940 ca         1 6GR      -0.069000
     11 CAH         -3.7630    -1.8180    -0.1540 ca         1 6GR      -0.162000
     12 CAG         -2.8660    -2.3160    -1.1110 ca         1 6GR      -0.111000
     13 CAI         -1.7040    -1.5930    -1.4230 ca         1 6GR      -0.185000
     14 CAO         -1.4290    -0.3690    -0.7730 ca         1 6GR       0.150100
     15 O1          -0.3130     0.3760    -1.0880 os         1 6GR      -0.361100
     16 O5           1.3580    -1.2180    -0.5840 os         1 6GR      -0.463000
     17 O6           1.1020    -2.9130     1.7520 oh         1 6GR      -0.697000
     18 O4           3.0040     1.0550     1.9190 oh         1 6GR      -0.704000
     19 O3           1.4060     2.4280     0.0770 oh         1 6GR      -0.690000
     20 O2           3.1950     0.2570    -2.3960 oh         1 6GR      -0.722000
     21 H1           3.3260     2.0840    -0.6120 h1         1 6GR       0.047700
     22 H2           1.6010     1.6210    -2.4470 h1         1 6GR       0.064700
     23 H3           3.6870    -0.0740     0.3170 h1         1 6GR       0.029700
     24 H4           0.7410    -0.2470     1.1650 h1         1 6GR       0.121700
     25 H5           3.0330    -2.2660     1.2900 h1         1 6GR       0.021700
     26 H6           2.2790    -1.4580     2.6700 h1         1 6GR       0.021700
     27 H7           0.7010    -0.7460    -2.5080 h2         1 6GR       0.049700
     28 H11         -3.0740    -3.2570    -1.6140 ha         1 6GR       0.084000
     29 H12         -1.0320    -1.9890    -2.1770 ha         1 6GR       0.095000
     30 H13          1.5010    -3.6330     2.2910 ho         1 6GR       0.483000
     31 H14          2.5580     1.9340     1.8610 ho         1 6GR       0.497000
     32 H15          0.5740     1.9280     0.3340 ho         1 6GR       0.541000
     33 H16          2.9410    -0.0640    -3.2930 ho         1 6GR       0.494000
     34 H9          -4.2000    -0.2300     1.2390 ha         1 6GR       0.124000
     35 CAN         -2.0510     1.4310     0.9190 c          1 6GR       0.733600
     36 H10         -4.6640    -2.3760     0.0870 ha         1 6GR       0.089000
@<TRIPOS>BOND
     1     1     2 1   
     2     1     3 1   
     3     1    19 1   
     4     1    21 1   
     5     2     6 1   
     6     2    20 1   
     7     2    22 1   
     8     3     4 1   
     9     3    18 1   
    10     3    23 1   
    11     4     5 1   
    12     4    16 1   
    13     4    24 1   
    14     5    17 1   
    15     5    25 1   
    16     5    26 1   
    17     6    15 1   
    18     6    16 1   
    19     6    27 1   
    20     7    35 1   
    21     8    35 1   
    22     9    10 ar  
    23     9    14 ar  
    24     9    35 1   
    25    10    11 ar  
    26    10    34 1   
    27    11    12 ar  
    28    11    36 1   
    29    12    13 ar  
    30    12    28 1   
    31    13    14 ar  
    32    13    29 1   
    33    14    15 1   
    34    17    30 1   
    35    18    31 1   
    36    19    32 1   
    37    20    33 1   
@<TRIPOS>SUBSTRUCTURE
     1 6GR         1 TEMP              0 ****  ****    0 ROOT
