@<TRIPOS>MOLECULE
6GR
   36    37     1     0     0
SMALL
abcg2


@<TRIPOS>ATOM
      1 C3           2.2960     1.5200    -0.3750 c6         1 6GR       0.186300
      2 C2           1.8810     0.8750    -1.7060 c6         1 6GR       0.101300
      3 C4           2.7050     0.4220     0.6210 c6         1 6GR       0.109300
      4 C5           1.6260    -0.6520     0.7490 c6         1 6GR       0.165300
      5 C6           2.0960    -1.8150     1.5970 c3         1 6GR       0.169600
      6 C1           0.8840    -0.2660    -1.4820 c6         1 6GR       0.365300
      7 OAA         -0.9680     1.7250     1.2450 o          1 6GR      -0.716500
      8 OAC         -3.1430     2.1210     1.0510 o          1 6GR      -0.716500
      9 CAP         -2.3250     0.1240     0.1200 ca         1 6GR      -0.147600
     10 CAJ         -3.4920    -0.5940     0.3750 ca         1 6GR      -0.069000
     11 CAH         -3.7250    -1.8380    -0.1900 ca         1 6GR      -0.162000
     12 CAG         -2.7870    -2.3690    -1.0620 ca         1 6GR      -0.111000
     13 CAI         -1.6320    -1.6630    -1.3630 ca         1 6GR      -0.185000
     14 CAO         -1.4000    -0.4200    -0.7790 ca         1 6GR       0.150100
     15 O1          -0.3270     0.3460    -1.1040 os         1 6GR      -0.361100
     16 O5           1.3250    -1.1780    -0.5400 os         1 6GR      -0.463000
     17 O6           1.0420    -2.7390     1.7350 oh         1 6GR      -0.697000
     18 O4           2.9500     0.9420     1.9050 oh         1 6GR      -0.704000
     19 O3           1.3450     2.4100     0.1220 oh         1 6GR      -0.690000
     20 O2           3.0500     0.3690    -2.3060 oh         1 6GR      -0.722000
     21 H1           3.1890     2.1230    -0.5850 h1         1 6GR       0.047700
     22 H2           1.4060     1.6390    -2.3370 h1         1 6GR       0.064700
     23 H3           3.6070    -0.0650     0.2190 h1         1 6GR       0.029700
     24 H4           0.7250    -0.2220     1.2070 h1         1 6GR       0.121700
     25 H5           2.9770    -2.2700     1.1210 h1         1 6GR       0.021700
     26 H6           2.4200    -1.4250     2.5670 h1         1 6GR       0.021700
     27 H7           0.7630    -0.8350    -2.4130 h2         1 6GR       0.049700
     28 H11         -2.9520    -3.3360    -1.5200 ha         1 6GR       0.084000
     29 H12         -0.9310    -2.0920    -2.0650 ha         1 6GR       0.095000
     30 H13          1.3460    -3.4450     2.3120 ho         1 6GR       0.483000
     31 H14          3.6620     1.5870     1.8400 ho         1 6GR       0.497000
     32 H15          0.5290     1.9710     0.4490 ho         1 6GR       0.541000
     33 H16          2.8410     0.0730    -3.1970 ho         1 6GR       0.494000
     34 H9          -4.2230    -0.1690     1.0500 ha         1 6GR       0.124000
     35 CAN         -2.1250     1.4430     0.8510 c          1 6GR       0.733600
     36 H10         -4.6310    -2.3820     0.0430 ha         1 6GR       0.089000
@<TRIPOS>BOND
     1     1     2 1   
     2     1     3 1   
     3     1    19 1   
     4     1    21 1   
     5     2     6 1   
     6     2    20 1   
     7     2    22 1   
     8     3     4 1   
     9     3    18 1   
    10     3    23 1   
    11     4     5 1   
    12     4    16 1   
    13     4    24 1   
    14     5    17 1   
    15     5    25 1   
    16     5    26 1   
    17     6    15 1   
    18     6    16 1   
    19     6    27 1   
    20     7    35 1   
    21     8    35 1   
    22     9    10 ar  
    23     9    14 ar  
    24     9    35 1   
    25    10    11 ar  
    26    10    34 1   
    27    11    12 ar  
    28    11    36 1   
    29    12    13 ar  
    30    12    28 1   
    31    13    14 ar  
    32    13    29 1   
    33    14    15 1   
    34    17    30 1   
    35    18    31 1   
    36    19    32 1   
    37    20    33 1   
@<TRIPOS>SUBSTRUCTURE
     1 6GR         1 TEMP              0 ****  ****    0 ROOT
