@<TRIPOS>MOLECULE
6GT
   20    19     1     0     0
SMALL
No Charge or Current Charge


@<TRIPOS>ATOM
      1 OAA         -4.2870    -0.9270    -1.1730 o          1 6GT      -0.757500
      2 CAJ         -3.9620    -0.1100    -0.3240 c          1 6GT       0.714000
      3 OAD         -4.6360     0.1360     0.6650 o          1 6GT      -0.757500
      4 CAH         -2.6060     0.6050    -0.4810 c3         1 6GT      -0.199400
      5 CAF         -1.4860    -0.2140     0.2060 c3         1 6GT      -0.058400
      6 CAG         -0.0930     0.4460     0.0920 c3         1 6GT      -0.073400
      7 CAI          1.0240    -0.3730     0.7790 c3         1 6GT      -0.185400
      8 CAL          2.3950     0.3200     0.6310 c          1 6GT       0.428100
      9 OAC          2.7370     1.2020     1.4260 o          1 6GT      -0.577100
     10 CAK          3.3360    -0.1520    -0.6020 c          1 6GT       0.641000
     11 OAB          3.4200    -1.3520    -0.8550 o          1 6GT      -0.714000
     12 OAE          3.9530     0.7060    -1.2310 o          1 6GT      -0.714000
     13 H2          -2.3250     0.6680    -1.5390 hc         1 6GT       0.011700
     14 H3          -2.6240     1.5760     0.0300 hc         1 6GT       0.011700
     15 H4          -1.7350    -0.3460     1.2660 hc         1 6GT       0.033200
     16 H5          -1.4470    -1.2160    -0.2400 hc         1 6GT       0.033200
     17 H6           0.1590     0.5770    -0.9680 hc         1 6GT       0.024200
     18 H7          -0.1310     1.4480     0.5380 hc         1 6GT       0.024200
     19 H8           0.7820    -0.4810     1.8440 hc         1 6GT       0.058200
     20 H9           1.0540    -1.3540     0.2920 hc         1 6GT       0.058200
@<TRIPOS>BOND
     1     1     2 1   
     2     2     3 1   
     3     2     4 1   
     4     4     5 1   
     5     4    13 1   
     6     4    14 1   
     7     5     6 1   
     8     5    15 1   
     9     5    16 1   
    10     6     7 1   
    11     6    17 1   
    12     6    18 1   
    13     7     8 1   
    14     7    19 1   
    15     7    20 1   
    16     8     9 2   
    17     8    10 1   
    18    10    11 1   
    19    10    12 1   
@<TRIPOS>SUBSTRUCTURE
     1 6GT         1 TEMP              0 ****  ****    0 ROOT
