@<TRIPOS>MOLECULE
6GT
   20    19     1     0     0
SMALL
abcg2


@<TRIPOS>ATOM
      1 OAA         -4.0350    -1.3910    -0.1120 o          1 6GT      -0.757500
      2 CAJ         -4.0640    -0.1510     0.0150 c          1 6GT       0.714000
      3 OAD         -5.0900     0.5540     0.1350 o          1 6GT      -0.757500
      4 CAH         -2.7240     0.6050     0.0160 c3         1 6GT      -0.199400
      5 CAF         -1.4710    -0.2560     0.0030 c3         1 6GT      -0.058400
      6 CAG         -0.1900     0.5710     0.0090 c3         1 6GT      -0.073400
      7 CAI          1.0530    -0.3050     0.0110 c3         1 6GT      -0.185400
      8 CAL          2.3580     0.4420     0.0280 c          1 6GT       0.428100
      9 OAC          2.4100     1.6500     0.0250 o          1 6GT      -0.577100
     10 CAK          3.6700    -0.4000     0.0490 c          1 6GT       0.641000
     11 OAB          3.5170    -1.6330     0.0300 o          1 6GT      -0.714000
     12 OAE          4.7240     0.2500     0.0830 o          1 6GT      -0.714000
     13 H2          -2.7140     1.2770    -0.8510 hc         1 6GT       0.011700
     14 H3          -2.7040     1.2710     0.8870 hc         1 6GT       0.011700
     15 H4          -1.4720    -0.9240     0.8700 hc         1 6GT       0.033200
     16 H5          -1.4780    -0.9060    -0.8760 hc         1 6GT       0.033200
     17 H6          -0.1790     1.2310    -0.8640 hc         1 6GT       0.024200
     18 H7          -0.1830     1.2280     0.8840 hc         1 6GT       0.024200
     19 H8           1.0430    -0.9830     0.8720 hc         1 6GT       0.058200
     20 H9           1.0560    -0.9710    -0.8580 hc         1 6GT       0.058200
@<TRIPOS>BOND
     1     1     2 1   
     2     2     3 1   
     3     2     4 1   
     4     4     5 1   
     5     4    13 1   
     6     4    14 1   
     7     5     6 1   
     8     5    15 1   
     9     5    16 1   
    10     6     7 1   
    11     6    17 1   
    12     6    18 1   
    13     7     8 1   
    14     7    19 1   
    15     7    20 1   
    16     8     9 2   
    17     8    10 1   
    18    10    11 1   
    19    10    12 1   
@<TRIPOS>SUBSTRUCTURE
     1 6GT         1 TEMP              0 ****  ****    0 ROOT
