@<TRIPOS>MOLECULE
6GU
   15    16     1     0     0
SMALL
No Charge or Current Charge


@<TRIPOS>ATOM
      1 Cl6         -0.8160     2.5300     0.0370 cl         1 6GU      -0.132000
      2 N1          -1.6410    -0.0040    -0.0380 nb         1 6GU      -0.257000
      3 C2          -1.4000    -1.3270    -0.0680 ca         1 6GU       0.412900
      4 N2          -2.4890    -2.1310    -0.1030 nv         1 6GU      -1.056900
      5 N3          -0.2050    -1.9470    -0.0660 nb         1 6GU      -0.261000
      6 C4           0.8650    -1.1330    -0.0310 ca         1 6GU       0.151500
      7 C5           0.7480     0.2330     0.0010 ca         1 6GU      -0.084600
      8 C6          -0.5500     0.7900    -0.0030 ca         1 6GU       0.317000
      9 N7           1.9810     0.8700     0.0350 nc         1 6GU      -0.515100
     10 C8           2.8380    -0.1670     0.0210 cd         1 6GU       0.403700
     11 N9           2.2000    -1.4150    -0.0190 na         1 6GU      -0.422300
     12 HN2         -3.3950    -1.7280     0.1230 hn         1 6GU       0.501000
     13 HN2A        -2.3680    -3.1220     0.0990 hn         1 6GU       0.501000
     14 H8           3.9190    -0.0920     0.0380 h5         1 6GU       0.069800
     15 HN9          2.6440    -2.3230    -0.0350 hn         1 6GU       0.370000
@<TRIPOS>BOND
     1     1     8 1   
     2     2     3 ar  
     3     2     8 ar  
     4     3     4 1   
     5     3     5 ar  
     6     4    12 1   
     7     4    13 1   
     8     5     6 ar  
     9     6     7 ar  
    10     6    11 1   
    11     7     8 ar  
    12     7     9 1   
    13     9    10 2   
    14    10    11 1   
    15    10    14 1   
    16    11    15 1   
@<TRIPOS>SUBSTRUCTURE
     1 6GU         1 TEMP              0 ****  ****    0 ROOT
