@<TRIPOS>MOLECULE
6GU
   15    16     1     0     0
SMALL
bcc


@<TRIPOS>ATOM
      1 CL6         -0.8200     2.4740     0.0330 cl         1 6GU      -0.132000
      2 N1          -1.5790    -0.0170    -0.0150 nb         1 6GU      -0.783000
      3 C2          -1.3700    -1.3520    -0.0360 ca         1 6GU       0.938900
      4 N2          -2.4700    -2.1240    -0.0920 nv         1 6GU      -0.946500
      5 N3          -0.1820    -1.9580    -0.0350 nb         1 6GU      -0.787000
      6 C4           0.8320    -1.1150    -0.0180 ca         1 6GU       0.479800
      7 C5           0.7530     0.2850     0.0020 ca         1 6GU      -0.215200
      8 C6          -0.5410     0.7730     0.0040 ca         1 6GU       0.645300
      9 N7           2.0030     0.8470     0.0180 nc         1 6GU      -0.515100
     10 C8           2.8070    -0.1720     0.0080 cd         1 6GU       0.403700
     11 N9           2.1620    -1.3780    -0.0130 na         1 6GU      -0.372000
     12 HN2         -3.3680    -1.7100     0.0850 hn         1 6GU       0.445800
     13 HN2A        -2.3800    -3.1130     0.0600 hn         1 6GU       0.445800
     14 H8           3.8850    -0.1170     0.0150 h5         1 6GU       0.069800
     15 HN9          2.5990    -2.2870    -0.0240 hn         1 6GU       0.319700
@<TRIPOS>BOND
     1     1     8 1   
     2     2     3 ar  
     3     2     8 ar  
     4     3     4 1   
     5     3     5 ar  
     6     4    12 1   
     7     4    13 1   
     8     5     6 ar  
     9     6     7 ar  
    10     6    11 1   
    11     7     8 ar  
    12     7     9 1   
    13     9    10 2   
    14    10    11 1   
    15    10    14 1   
    16    11    15 1   
@<TRIPOS>SUBSTRUCTURE
     1 6GU         1 TEMP              0 ****  ****    0 ROOT
