@<TRIPOS>MOLECULE
6GV
   48    50     1     0     0
SMALL
abcg2


@<TRIPOS>ATOM
      1 C1          -1.1950    33.0480   -22.7270 ca         1 6GV       0.313100
      2 C2          -2.3770    33.4640   -23.3350 ca         1 6GV      -0.289000
      3 C3          -2.3680    34.1340   -24.5510 ca         1 6GV       0.261100
      4 C9          -1.0830    35.1040   -26.4920 cc         1 6GV       0.442500
      5 C12         -0.3400    36.5150   -28.0960 c          1 6GV       0.574000
      6 C14          0.9030    36.5670   -25.9480 ca         1 6GV       0.009600
      7 C15          2.2420    36.3730   -26.2710 ca         1 6GV       0.172000
      8 C16          3.2610    36.8120   -25.4480 ca         1 6GV      -0.149000
      9 C19          0.5880    37.2330   -24.7680 ca         1 6GV      -0.080000
     10 C27          4.9310    32.2430   -23.9090 c3         1 6GV      -0.103600
     11 C4          -1.1470    34.3920   -25.2150 ca         1 6GV      -0.209900
     12 C5           0.0210    33.9680   -24.6000 ca         1 6GV       0.074000
     13 C6           0.0280    33.3210   -23.3720 ca         1 6GV      -0.449500
     14 O7          -1.2950    32.4070   -21.5520 oh         1 6GV      -0.533100
     15 O8          -3.5120    34.5620   -25.1210 oh         1 6GV      -0.503100
     16 N10         -1.8810    34.9320   -27.5040 nd         1 6GV      -0.454300
     17 N11         -1.4270    35.7880   -28.4740 ns         1 6GV      -0.377400
     18 N13         -0.1110    36.0550   -26.7940 n          1 6GV      -0.257500
     19 C17          2.9310    37.4640   -24.2650 ca         1 6GV      -0.064000
     20 C18          1.5980    37.6750   -23.9250 ca         1 6GV      -0.106000
     21 O20          0.2830    37.3700   -28.7090 o          1 6GV      -0.543000
     22 S21          1.5980    32.9460   -22.6580 sy         1 6GV       1.240600
     23 O22          2.2770    34.1710   -22.3080 o          1 6GV      -0.559000
     24 O23          1.3190    32.0090   -21.5740 o          1 6GV      -0.559000
     25 N24          2.4650    32.2070   -23.7980 n3         1 6GV      -0.815500
     26 C25          1.9780    30.9230   -24.3050 c3         1 6GV       0.208100
     27 C26          3.6390    32.8540   -24.4440 c3         1 6GV       0.249500
     28 C28          3.5510    32.7710   -25.9640 c3         1 6GV      -0.103600
     29 F            2.5500    35.7090   -27.4030 f          1 6GV      -0.169000
     30 H1          -3.3170    33.2620   -22.8370 ha         1 6GV       0.138000
     31 H2           4.2890    36.6300   -25.7320 ha         1 6GV       0.135000
     32 H3          -0.4540    37.3830   -24.5160 ha         1 6GV       0.130000
     33 H4           4.9920    32.3630   -22.8260 hc         1 6GV       0.046033
     34 H5           4.9910    31.1790   -24.1460 hc         1 6GV       0.046033
     35 H6           5.7910    32.7390   -24.3630 hc         1 6GV       0.046033
     36 H7           0.9650    34.1440   -25.0910 ha         1 6GV       0.125000
     37 H8          -0.3960    32.1240   -21.2740 ho         1 6GV       0.522000
     38 H9          -4.2670    34.3580   -24.5510 ho         1 6GV       0.476000
     39 H10         -1.9000    35.8510   -29.3600 hn         1 6GV       0.493000
     40 H11          3.7210    37.8040   -23.6080 ha         1 6GV       0.126000
     41 H12          1.3450    38.1830   -23.0050 ha         1 6GV       0.128000
     42 H13          1.3270    30.4590   -23.5680 h1         1 6GV       0.050033
     43 H14          1.4270    31.0490   -25.2390 h1         1 6GV       0.050033
     44 H15          2.8250    30.2600   -24.4730 h1         1 6GV       0.050033
     45 H16          3.6010    33.9000   -24.1530 h1         1 6GV       0.076700
     46 H17          2.6120    33.1790   -26.3370 hc         1 6GV       0.046033
     47 H18          4.3660    33.3530   -26.3950 hc         1 6GV       0.046033
     48 H19          3.6500    31.7430   -26.3170 hc         1 6GV       0.046033
@<TRIPOS>BOND
     1     1     2 ar  
     2     1    13 ar  
     3     1    14 1   
     4     2     3 ar  
     5     2    30 1   
     6     3    11 ar  
     7     3    15 1   
     8     4    11 1   
     9     4    16 2   
    10     4    18 1   
    11     5    17 1   
    12     5    18 1   
    13     5    21 2   
    14     6     7 ar  
    15     6     9 ar  
    16     6    18 1   
    17     7     8 ar  
    18     7    29 1   
    19     8    19 ar  
    20     8    31 1   
    21     9    20 ar  
    22     9    32 1   
    23    10    27 1   
    24    10    33 1   
    25    10    34 1   
    26    10    35 1   
    27    11    12 ar  
    28    12    13 ar  
    29    12    36 1   
    30    13    22 1   
    31    14    37 1   
    32    15    38 1   
    33    16    17 1   
    34    17    39 1   
    35    19    20 ar  
    36    19    40 1   
    37    20    41 1   
    38    22    23 2   
    39    22    24 2   
    40    22    25 1   
    41    25    26 1   
    42    25    27 1   
    43    26    42 1   
    44    26    43 1   
    45    26    44 1   
    46    27    28 1   
    47    27    45 1   
    48    28    46 1   
    49    28    47 1   
    50    28    48 1   
@<TRIPOS>SUBSTRUCTURE
     1 6GV         1 TEMP              0 ****  ****    0 ROOT
