@<TRIPOS>MOLECULE
6GV
   48    50     1     0     0
SMALL
No Charge or Current Charge


@<TRIPOS>ATOM
      1 C1          -0.6400    33.1850   -22.8030 ca         1 6GV       0.313100
      2 C2          -1.9350    33.4700   -23.2390 ca         1 6GV      -0.289000
      3 C3          -2.1480    34.1660   -24.4350 ca         1 6GV       0.261100
      4 C9          -1.2400    35.2960   -26.4860 cc         1 6GV       0.442500
      5 C12         -0.7920    36.6670   -28.2220 c          1 6GV       0.574000
      6 C14          0.4110    37.1740   -26.0660 ca         1 6GV       0.009600
      7 C15          1.7050    37.5670   -26.4880 ca         1 6GV       0.172000
      8 C16          2.5600    38.2730   -25.6250 ca         1 6GV      -0.149000
      9 C19          0.0340    37.4410   -24.7300 ca         1 6GV      -0.080000
     10 C27          4.5740    30.8580   -23.2930 c3         1 6GV      -0.103600
     11 C4          -1.0560    34.5980   -25.2110 ca         1 6GV      -0.209900
     12 C5           0.2480    34.2900   -24.7760 ca         1 6GV       0.074000
     13 C6           0.4570    33.5960   -23.5720 ca         1 6GV      -0.449500
     14 O7          -0.4970    32.5060   -21.6350 oh         1 6GV      -0.533100
     15 O8          -3.4270    34.4540   -24.8030 oh         1 6GV      -0.503100
     16 N10         -2.0560    34.8940   -27.4610 nd         1 6GV      -0.454300
     17 N11         -1.7550    35.7460   -28.4840 ns         1 6GV      -0.377400
     18 N13         -0.4300    36.3580   -26.9130 n          1 6GV      -0.257500
     19 C17          2.1500    38.5740   -24.3160 ca         1 6GV      -0.064000
     20 C18          0.8900    38.1490   -23.8680 ca         1 6GV      -0.106000
     21 O20         -0.4080    37.5720   -28.9460 o          1 6GV      -0.543000
     22 S21          2.1400    33.2590   -23.0930 sy         1 6GV       1.240600
     23 O22          2.9000    34.4940   -23.3040 o          1 6GV      -0.559000
     24 O23          2.1450    32.5390   -21.8160 o          1 6GV      -0.559000
     25 N24          2.6450    32.1810   -24.3060 n3         1 6GV      -0.815500
     26 C25          1.7500    31.0160   -24.5150 c3         1 6GV       0.208100
     27 C26          4.1030    31.8970   -24.3380 c3         1 6GV       0.249500
     28 C28          4.5730    31.5000   -25.7540 c3         1 6GV      -0.103600
     29 F            2.1690    37.2260   -27.7120 f          1 6GV      -0.169000
     30 H1          -2.7770    33.1480   -22.6330 ha         1 6GV       0.138000
     31 H2           3.5480    38.5710   -25.9680 ha         1 6GV       0.135000
     32 H3          -0.9380    37.1260   -24.3590 ha         1 6GV       0.130000
     33 H4           4.3340    31.1770   -22.2730 hc         1 6GV       0.046033
     34 H5           4.1130    29.8790   -23.4680 hc         1 6GV       0.046033
     35 H6           5.6620    30.7310   -23.3480 hc         1 6GV       0.046033
     36 H7           1.1030    34.5820   -25.3850 ha         1 6GV       0.125000
     37 H8           0.4720    32.3890   -21.4780 ho         1 6GV       0.522000
     38 H9          -4.0290    34.0620   -24.1380 ho         1 6GV       0.476000
     39 H10         -2.2170    35.7360   -29.3960 hn         1 6GV       0.493000
     40 H11          2.8140    39.1170   -23.6460 ha         1 6GV       0.126000
     41 H12          0.5760    38.3650   -22.8490 ha         1 6GV       0.128000
     42 H13          0.7240    31.3320   -24.7410 h1         1 6GV       0.050033
     43 H14          2.0830    30.4010   -25.3590 h1         1 6GV       0.050033
     44 H15          1.7190    30.3770   -23.6220 h1         1 6GV       0.050033
     45 H16          4.6460    32.8270   -24.1150 h1         1 6GV       0.076700
     46 H17          4.2170    32.2260   -26.4930 hc         1 6GV       0.046033
     47 H18          5.6690    31.4810   -25.8000 hc         1 6GV       0.046033
     48 H19          4.2070    30.5070   -26.0370 hc         1 6GV       0.046033
@<TRIPOS>BOND
     1     1     2 ar  
     2     1    13 ar  
     3     1    14 1   
     4     2     3 ar  
     5     2    30 1   
     6     3    11 ar  
     7     3    15 1   
     8     4    11 1   
     9     4    16 2   
    10     4    18 1   
    11     5    17 1   
    12     5    18 1   
    13     5    21 2   
    14     6     7 ar  
    15     6     9 ar  
    16     6    18 1   
    17     7     8 ar  
    18     7    29 1   
    19     8    19 ar  
    20     8    31 1   
    21     9    20 ar  
    22     9    32 1   
    23    10    27 1   
    24    10    33 1   
    25    10    34 1   
    26    10    35 1   
    27    11    12 ar  
    28    12    13 ar  
    29    12    36 1   
    30    13    22 1   
    31    14    37 1   
    32    15    38 1   
    33    16    17 1   
    34    17    39 1   
    35    19    20 ar  
    36    19    40 1   
    37    20    41 1   
    38    22    23 2   
    39    22    24 2   
    40    22    25 1   
    41    25    26 1   
    42    25    27 1   
    43    26    42 1   
    44    26    43 1   
    45    26    44 1   
    46    27    28 1   
    47    27    45 1   
    48    28    46 1   
    49    28    47 1   
    50    28    48 1   
@<TRIPOS>SUBSTRUCTURE
     1 6GV         1 TEMP              0 ****  ****    0 ROOT
