@<TRIPOS>MOLECULE
6GW
   51    54     1     0     0
SMALL
abcg2


@<TRIPOS>ATOM
      1 C1          -2.1510    -2.2290     1.0940 ca         1 6GW      -0.091000
      2 C2           0.5780     2.8510    -0.1730 ca         1 6GW       0.249100
      3 C3          -0.5830     3.5790     0.0320 ca         1 6GW      -0.290000
      4 C7           0.5190     1.4520    -0.2310 ca         1 6GW      -0.234600
      5 C8          -3.1970     0.8900     0.2190 cc         1 6GW       0.483500
      6 C14         -4.8660    -0.6030     0.3150 c          1 6GW       0.568000
      7 C16         -2.6380    -1.5710    -0.0250 ca         1 6GW       0.040600
      8 C19         -0.9460    -3.7210    -0.3400 ca         1 6GW      -0.094000
      9 C21          1.7150     0.6270    -0.5650 c          1 6GW       0.632700
     10 C24          2.9920    -1.3750    -0.1780 c3         1 6GW       0.172300
     11 C27          1.5160    -0.5550     1.6110 c3         1 6GW       0.091300
     12 C30          6.4320    -0.9890     1.3260 cc         1 6GW      -0.139000
     13 C31          5.1650    -1.6130     1.1610 cc         1 6GW      -0.132000
     14 C4          -1.8180     2.9510     0.1620 ca         1 6GW       0.263100
     15 C5          -1.8990     1.5380     0.0970 ca         1 6GW      -0.285900
     16 C6          -0.7100     0.8350    -0.0900 ca         1 6GW       0.021000
     17 N9          -4.2870     1.5700     0.4020 nd         1 6GW      -0.575300
     18 N10         -3.4910    -0.4510     0.1600 n          1 6GW      -0.250500
     19 O12          1.7730     3.4340    -0.2890 oh         1 6GW      -0.501100
     20 N13         -5.2920     0.6720     0.4610 ns         1 6GW      -0.356400
     21 C17         -2.3130    -1.9760    -1.3200 ca         1 6GW      -0.050300
     22 C18         -1.4510    -3.0610    -1.4520 ca         1 6GW      -0.106000
     23 N22          1.9820    -0.4190     0.2450 n          1 6GW      -0.408800
     24 O23          2.3730     0.8510    -1.5730 o          1 6GW      -0.584100
     25 C25          4.3760    -0.9920     0.2380 cd         1 6GW      -0.253300
     26 C26         -1.2990    -3.3110     0.9380 ca         1 6GW      -0.114000
     27 S28          5.1840     0.3750    -0.4370 ss         1 6GW       0.273000
     28 C29          6.5790     0.0990     0.5230 cd         1 6GW      -0.258000
     29 H1          -2.4270    -1.8810     2.0810 ha         1 6GW       0.127000
     30 H2          -0.5450     4.6610     0.0960 ha         1 6GW       0.137000
     31 H3          -0.2750    -4.5600    -0.4730 ha         1 6GW       0.119000
     32 H4          -2.5750    -0.1960    -2.5070 hc         1 6GW       0.052367
     33 H5          -2.4500    -1.6830    -3.4360 hc         1 6GW       0.052367
     34 H6          -3.9350    -1.3060    -2.5690 hc         1 6GW       0.052367
     35 H7           2.7510    -2.3380     0.2730 h1         1 6GW       0.065200
     36 H8           2.9280    -1.5070    -1.2580 h1         1 6GW       0.065200
     37 H9           0.8080    -1.3800     1.7120 h1         1 6GW       0.041700
     38 H10          2.3680    -0.7520     2.2650 h1         1 6GW       0.041700
     39 H11          1.0400     0.3560     1.9570 h1         1 6GW       0.041700
     40 H13          4.8490    -2.4960     1.7000 ha         1 6GW       0.126000
     41 H14         -0.7300    -0.2420    -0.1390 ha         1 6GW       0.133000
     42 H16          1.6930     4.3930    -0.2160 ho         1 6GW       0.474000
     43 H17         -6.2420     0.9760     0.5990 hn         1 6GW       0.495000
     44 H18         -1.1720    -3.3940    -2.4430 ha         1 6GW       0.122000
     45 H19         -0.9110    -3.8240     1.8070 ha         1 6GW       0.121000
     46 H20          7.4320     0.7560     0.4470 h4         1 6GW       0.147000
     47 C20         -2.8460    -1.2530    -2.5190 c3         1 6GW      -0.053800
     48 O15         -5.4920    -1.6440     0.3140 o          1 6GW      -0.540000
     49 O11         -2.8740     3.7360     0.3480 oh         1 6GW      -0.538100
     50 H12          7.1930    -1.3350     2.0110 ha         1 6GW       0.130000
     51 H15         -3.6900     3.1940     0.4240 ho         1 6GW       0.521000
@<TRIPOS>BOND
     1     1     7 ar  
     2     1    26 ar  
     3     1    29 1   
     4     2     3 ar  
     5     2     4 ar  
     6     2    19 1   
     7     3    14 ar  
     8     3    30 1   
     9     4     9 1   
    10     4    16 ar  
    11     5    15 1   
    12     5    17 2   
    13     5    18 1   
    14     6    18 1   
    15     6    20 1   
    16     6    48 2   
    17     7    18 1   
    18     7    21 ar  
    19     8    22 ar  
    20     8    26 ar  
    21     8    31 1   
    22     9    23 1   
    23     9    24 2   
    24    10    23 1   
    25    10    25 1   
    26    10    35 1   
    27    10    36 1   
    28    11    23 1   
    29    11    37 1   
    30    11    38 1   
    31    11    39 1   
    32    12    13 1   
    33    12    28 2   
    34    12    50 1   
    35    13    25 2   
    36    13    40 1   
    37    14    15 ar  
    38    14    49 1   
    39    15    16 ar  
    40    16    41 1   
    41    17    20 1   
    42    19    42 1   
    43    20    43 1   
    44    21    22 ar  
    45    21    47 1   
    46    22    44 1   
    47    25    27 1   
    48    26    45 1   
    49    27    28 1   
    50    28    46 1   
    51    32    47 1   
    52    33    47 1   
    53    34    47 1   
    54    49    51 1   
@<TRIPOS>SUBSTRUCTURE
     1 6GW         1 TEMP              0 ****  ****    0 ROOT
