@<TRIPOS>MOLECULE
6GW
   51    54     1     0     0
SMALL
No Charge or Current Charge


@<TRIPOS>ATOM
      1 C1          -2.0540    -1.1860     1.4620 ca         1 6GW      -0.091000
      2 C2           0.5180     2.9760     0.7580 ca         1 6GW       0.249100
      3 C3          -0.6820     3.5020     1.2450 ca         1 6GW      -0.290000
      4 C7           0.5120     1.8210    -0.0450 ca         1 6GW      -0.234600
      5 C8          -3.2100     1.0840    -0.1780 cc         1 6GW       0.483500
      6 C14         -4.7330    -0.4560    -0.7900 c          1 6GW       0.568000
      7 C16         -2.5980    -1.3410     0.1680 ca         1 6GW       0.040600
      8 C19         -0.9430    -3.3390     1.2930 ca         1 6GW      -0.094000
      9 C21          1.7890     1.3130    -0.6660 c          1 6GW       0.632700
     10 C24          3.1940    -0.6430    -1.3800 c3         1 6GW       0.172300
     11 C27          1.3860    -0.9690     0.3330 c3         1 6GW       0.091300
     12 C30          6.1040    -1.6830     0.8170 cc         1 6GW      -0.139000
     13 C31          4.9150    -1.9040     0.0820 cc         1 6GW      -0.132000
     14 C4          -1.8970     2.8870     0.9390 ca         1 6GW       0.263100
     15 C5          -1.9310     1.7000     0.1860 ca         1 6GW      -0.285900
     16 C6          -0.7200     1.1890    -0.3280 ca         1 6GW       0.021000
     17 N9          -4.3150     1.7870    -0.4300 nd         1 6GW      -0.575300
     18 N10         -3.4110    -0.2860    -0.3850 n          1 6GW      -0.250500
     19 O12          1.6840     3.5960     1.0900 oh         1 6GW      -0.501100
     20 N13         -5.2040     0.8200    -0.8100 ns         1 6GW      -0.356400
     21 C17         -2.2280    -2.4760    -0.6010 ca         1 6GW      -0.050300
     22 C18         -1.4190    -3.4740    -0.0210 ca         1 6GW      -0.106000
     23 N22          2.0390    -0.0790    -0.6500 n          1 6GW      -0.408800
     24 O23          2.5330     2.0750    -1.2710 o          1 6GW      -0.584100
     25 C25          4.4290    -0.7750    -0.5260 cd         1 6GW      -0.253300
     26 C26         -1.2500    -2.1870     2.0300 ca         1 6GW      -0.114000
     27 S28          5.4620     0.6310    -0.1970 ss         1 6GW       0.273000
     28 C29          6.5410    -0.3850     0.7790 cd         1 6GW      -0.258000
     29 H1          -2.2910    -0.3050     2.0540 ha         1 6GW       0.127000
     30 H2          -0.6840     4.4040     1.8520 ha         1 6GW       0.137000
     31 H3          -0.3190    -4.1160     1.7300 ha         1 6GW       0.119000
     32 H4          -2.7570    -1.6870    -2.5730 hc         1 6GW       0.052367
     33 H5          -1.9020    -3.2230    -2.6210 hc         1 6GW       0.052367
     34 H6          -3.5990    -3.1880    -2.1340 hc         1 6GW       0.052367
     35 H7           2.9160    -1.6360    -1.7570 h1         1 6GW       0.065200
     36 H8           3.4230    -0.0260    -2.2590 h1         1 6GW       0.065200
     37 H9           0.4990    -1.4200    -0.1230 h1         1 6GW       0.041700
     38 H10          2.0690    -1.7730     0.6360 h1         1 6GW       0.041700
     39 H11          1.0940    -0.4080     1.2300 h1         1 6GW       0.041700
     40 H13          4.4460    -2.8820     0.0180 ha         1 6GW       0.126000
     41 H14         -0.7390     0.3270    -0.9920 ha         1 6GW       0.133000
     42 H16          1.4660     4.3780     1.6380 ho         1 6GW       0.474000
     43 H17         -6.1800     0.9960    -1.0680 hn         1 6GW       0.495000
     44 H18         -1.1450    -4.3570    -0.5960 ha         1 6GW       0.122000
     45 H19         -0.8650    -2.0680     3.0410 ha         1 6GW       0.121000
     46 H20          7.4150     0.0470     1.2510 h4         1 6GW       0.147000
     47 C20         -2.6480    -2.6490    -2.0590 c3         1 6GW      -0.053800
     48 O15         -5.3590    -1.4830    -0.9960 o          1 6GW      -0.540000
     49 O11         -3.0460     3.4580     1.3840 oh         1 6GW      -0.538100
     50 H12          6.6100    -2.4800     1.3550 ha         1 6GW       0.130000
     51 H15         -3.7740     3.0320     0.8680 ho         1 6GW       0.521000
@<TRIPOS>BOND
     1     1     7 ar  
     2     1    26 ar  
     3     1    29 1   
     4     2     3 ar  
     5     2     4 ar  
     6     2    19 1   
     7     3    14 ar  
     8     3    30 1   
     9     4     9 1   
    10     4    16 ar  
    11     5    15 1   
    12     5    17 2   
    13     5    18 1   
    14     6    18 1   
    15     6    20 1   
    16     6    48 2   
    17     7    18 1   
    18     7    21 ar  
    19     8    22 ar  
    20     8    26 ar  
    21     8    31 1   
    22     9    23 1   
    23     9    24 2   
    24    10    23 1   
    25    10    25 1   
    26    10    35 1   
    27    10    36 1   
    28    11    23 1   
    29    11    37 1   
    30    11    38 1   
    31    11    39 1   
    32    12    13 1   
    33    12    28 2   
    34    12    50 1   
    35    13    25 2   
    36    13    40 1   
    37    14    15 ar  
    38    14    49 1   
    39    15    16 ar  
    40    16    41 1   
    41    17    20 1   
    42    19    42 1   
    43    20    43 1   
    44    21    22 ar  
    45    21    47 1   
    46    22    44 1   
    47    25    27 1   
    48    26    45 1   
    49    27    28 1   
    50    28    46 1   
    51    32    47 1   
    52    33    47 1   
    53    34    47 1   
    54    49    51 1   
@<TRIPOS>SUBSTRUCTURE
     1 6GW         1 TEMP              0 ****  ****    0 ROOT
