@<TRIPOS>MOLECULE
6GX
   60    62     1     0     0
SMALL
No Charge or Current Charge


@<TRIPOS>ATOM
      1 O1           2.3790    -2.1160     1.1360 os         1 6GX      -0.468300
      2 O2           9.3320    -1.4130    -0.7910 o          1 6GX      -0.608100
      3 C11          9.8150    -0.3470    -0.4390 c          1 6GX       0.598100
      4 C12         11.2820    -0.1970    -0.0600 c3         1 6GX      -0.179100
      5 N2           9.0770     0.8110    -0.3570 ns         1 6GX      -0.510900
      6 C10          7.6400     0.9120    -0.6470 c3         1 6GX       0.100000
      7 C9           6.7550     0.2830     0.4570 c3         1 6GX       0.138800
      8 N1           5.3200     0.4510     0.1500 n7         1 6GX      -0.852400
      9 C8           4.3970    -0.0710     1.1720 c3         1 6GX       0.230100
     10 C7           2.9540     0.1840     0.7640 ca         1 6GX      -0.201300
     11 C5           1.9900    -0.8480     0.7650 ca         1 6GX       0.630300
     12 C6           1.4460    -3.2140     1.1580 c3         1 6GX       0.161900
     13 N            0.7010    -0.6460     0.4240 nb         1 6GX      -0.846000
     14 C13          2.5460     1.4800     0.4060 ca         1 6GX       0.001000
     15 C14          1.2060     1.6780     0.0540 ca         1 6GX      -0.228000
     16 C4           0.3230     0.5950     0.0730 ca         1 6GX       0.634300
     17 O           -0.9810     0.8340    -0.2800 os         1 6GX      -0.459300
     18 C3          -1.9560    -0.2270    -0.2850 c3         1 6GX       0.217900
     19 C2          -3.3230     0.3170    -0.7290 ca         1 6GX      -0.094300
     20 C15         -3.3670     1.3460    -1.6950 ca         1 6GX      -0.081000
     21 C16         -4.5900     1.8730    -2.1270 ca         1 6GX      -0.117000
     22 C17         -5.7870     1.3830    -1.5940 ca         1 6GX      -0.095000
     23 C18         -5.7890     0.3500    -0.6290 cp         1 6GX      -0.036000
     24 C1          -4.5420    -0.2090    -0.2110 ca         1 6GX      -0.055300
     25 C           -4.5040    -1.3920     0.7640 c3         1 6GX      -0.056800
     26 C19         -7.1050    -0.1090    -0.0870 cp         1 6GX      -0.037000
     27 C24         -7.3770    -0.0790     1.3030 ca         1 6GX      -0.099500
     28 C23         -8.6210    -0.4970     1.8060 ca         1 6GX      -0.112500
     29 C22         -9.6200    -0.9450     0.9250 ca         1 6GX      -0.108000
     30 C21         -9.3740    -0.9700    -0.4580 ca         1 6GX      -0.112500
     31 C20         -8.1290    -0.5520    -0.9580 ca         1 6GX      -0.099500
     32 H1          11.7310     0.5900    -0.6750 hc         1 6GX       0.058700
     33 H2          11.3490     0.2280     0.9480 hc         1 6GX       0.058700
     34 H3          11.8380    -1.1390    -0.1390 hc         1 6GX       0.058700
     35 H4           9.5700     1.6450    -0.0580 hn         1 6GX       0.309500
     36 H5           7.3820     1.9740    -0.7530 h1         1 6GX       0.059700
     37 H6           7.4350     0.4190    -1.6060 h1         1 6GX       0.059700
     38 H7           7.0010    -0.7830     0.5530 h1         1 6GX       0.029700
     39 H8           6.9940     0.7670     1.4140 h1         1 6GX       0.029700
     40 H9           5.1180    -0.0390    -0.7300 hn         1 6GX       0.418000
     41 H11          4.5770    -1.1440     1.3220 h1         1 6GX       0.037700
     42 H12          4.5790     0.4240     2.1360 h1         1 6GX       0.037700
     43 H13          1.9490    -4.1350     1.4780 h1         1 6GX       0.046367
     44 H14          0.6230    -3.0160     1.8570 h1         1 6GX       0.046367
     45 H15          1.0230    -3.3890     0.1600 h1         1 6GX       0.046367
     46 H16          3.2500     2.3100     0.4020 ha         1 6GX       0.125000
     47 H17          0.8470     2.6610    -0.2330 ha         1 6GX       0.142000
     48 H18         -1.6530    -1.0280    -0.9740 h1         1 6GX       0.055700
     49 H19         -2.0270    -0.6560     0.7220 h1         1 6GX       0.055700
     50 H20         -2.4470     1.7410    -2.1190 ha         1 6GX       0.128000
     51 H21         -4.6090     2.6670    -2.8700 ha         1 6GX       0.115000
     52 H22         -6.7300     1.8120    -1.9240 ha         1 6GX       0.117000
     53 H23         -4.2860    -1.0540     1.7840 hc         1 6GX       0.045700
     54 H24         -5.4500    -1.9440     0.7900 hc         1 6GX       0.045700
     55 H25         -3.7430    -2.1280     0.4810 hc         1 6GX       0.045700
     56 H26         -6.6150     0.2760     1.9930 ha         1 6GX       0.115500
     57 H27         -8.8120    -0.4710     2.8760 ha         1 6GX       0.112500
     58 H28        -10.5840    -1.2680     1.3130 ha         1 6GX       0.112000
     59 H29        -10.1470    -1.3130    -1.1420 ha         1 6GX       0.112500
     60 H30         -7.9490    -0.5770    -2.0310 ha         1 6GX       0.115500
@<TRIPOS>BOND
     1     1    11 1   
     2     1    12 1   
     3     2     3 2   
     4     3     4 1   
     5     3     5 1   
     6     4    32 1   
     7     4    33 1   
     8     4    34 1   
     9     5     6 1   
    10     5    35 1   
    11     6     7 1   
    12     6    36 1   
    13     6    37 1   
    14     7     8 1   
    15     7    38 1   
    16     7    39 1   
    17     8     9 1   
    18     8    40 1   
    19     9    10 1   
    20     9    41 1   
    21     9    42 1   
    22    10    11 ar  
    23    10    14 ar  
    24    11    13 ar  
    25    12    43 1   
    26    12    44 1   
    27    12    45 1   
    28    13    16 ar  
    29    14    15 ar  
    30    14    46 1   
    31    15    16 ar  
    32    15    47 1   
    33    16    17 1   
    34    17    18 1   
    35    18    19 1   
    36    18    48 1   
    37    18    49 1   
    38    19    20 ar  
    39    19    24 ar  
    40    20    21 ar  
    41    20    50 1   
    42    21    22 ar  
    43    21    51 1   
    44    22    23 ar  
    45    22    52 1   
    46    23    24 ar  
    47    23    26 1   
    48    24    25 1   
    49    25    53 1   
    50    25    54 1   
    51    25    55 1   
    52    26    27 ar  
    53    26    31 ar  
    54    27    28 ar  
    55    27    56 1   
    56    28    29 ar  
    57    28    57 1   
    58    29    30 ar  
    59    29    58 1   
    60    30    31 ar  
    61    30    59 1   
    62    31    60 1   
@<TRIPOS>SUBSTRUCTURE
     1 6GX         1 TEMP              0 ****  ****    0 ROOT
