@<TRIPOS>MOLECULE
6GX
   60    62     1     0     0
SMALL
abcg2


@<TRIPOS>ATOM
      1 O1           2.3950    -0.8550     1.3650 os         1 6GX      -0.468300
      2 O2           9.0070    -1.9250    -2.0860 o          1 6GX      -0.608100
      3 C11          9.3610    -1.4380    -1.0180 c          1 6GX       0.598100
      4 C12         10.7500    -1.6480    -0.4690 c3         1 6GX      -0.179100
      5 N2           8.5430    -0.6900    -0.2640 ns         1 6GX      -0.510900
      6 C10          7.1870    -0.3690    -0.6510 c3         1 6GX       0.100000
      7 C9           6.4400     0.2520     0.5170 c3         1 6GX       0.138800
      8 N1           5.0720     0.5370     0.1350 n7         1 6GX      -0.852400
      9 C8           4.3260     1.1810     1.2080 c3         1 6GX       0.230100
     10 C7           2.8840     1.3700     0.8400 ca         1 6GX      -0.201300
     11 C5           1.9550     0.3280     0.9300 ca         1 6GX       0.630300
     12 C6           1.4670    -1.9270     1.4630 c3         1 6GX       0.161900
     13 N            0.6810     0.4480     0.6100 nb         1 6GX      -0.846000
     14 C13          2.3870     2.5750     0.3620 ca         1 6GX       0.001000
     15 C14          1.0540     2.7260     0.0170 ca         1 6GX      -0.228000
     16 C4           0.2380     1.6100     0.1700 ca         1 6GX       0.634300
     17 O           -1.0560     1.7270    -0.1460 os         1 6GX      -0.459300
     18 C3          -1.8890     0.5990     0.0390 c3         1 6GX       0.217900
     19 C2          -3.3030     0.9460    -0.3400 ca         1 6GX      -0.094300
     20 C15         -3.6340     2.1780    -0.8900 ca         1 6GX      -0.081000
     21 C16         -4.9480     2.4570    -1.2370 ca         1 6GX      -0.117000
     22 C17         -5.9330     1.5130    -1.0190 ca         1 6GX      -0.095000
     23 C18         -5.6230     0.2730    -0.4580 cp         1 6GX      -0.036000
     24 C1          -4.2940    -0.0280    -0.1310 ca         1 6GX      -0.055300
     25 C           -3.8900    -1.3720     0.4100 c3         1 6GX      -0.056800
     26 C19         -6.7340    -0.6810    -0.2240 cp         1 6GX      -0.037000
     27 C24         -7.0210    -1.1540     1.0570 ca         1 6GX      -0.099500
     28 C23         -8.0880    -2.0140     1.2730 ca         1 6GX      -0.112500
     29 C22         -8.8890    -2.4140     0.2100 ca         1 6GX      -0.108000
     30 C21         -8.6150    -1.9470    -1.0680 ca         1 6GX      -0.112500
     31 C20         -7.5470    -1.0850    -1.2820 ca         1 6GX      -0.099500
     32 H1          11.4800    -1.2450    -1.1710 hc         1 6GX       0.058700
     33 H2          10.9130    -1.1830     0.5020 hc         1 6GX       0.058700
     34 H3          10.9450    -2.7160    -0.3760 hc         1 6GX       0.058700
     35 H4           8.9050    -0.2800     0.5820 hn         1 6GX       0.309500
     36 H5           7.1770     0.3200    -1.5000 h1         1 6GX       0.059700
     37 H6           6.6760    -1.2820    -0.9700 h1         1 6GX       0.059700
     38 H7           6.5120    -0.4130     1.3930 h1         1 6GX       0.029700
     39 H8           6.9230     1.1930     0.8000 h1         1 6GX       0.029700
     40 H9           4.6150    -0.3370    -0.0980 hn         1 6GX       0.418000
     41 H11          4.3990     0.6290     2.1570 h1         1 6GX       0.037700
     42 H12          4.7760     2.1600     1.3920 h1         1 6GX       0.037700
     43 H13          2.0340    -2.7750     1.8370 h1         1 6GX       0.046367
     44 H14          0.6570    -1.6990     2.1580 h1         1 6GX       0.046367
     45 H15          1.0360    -2.1780     0.4940 h1         1 6GX       0.046367
     46 H16          3.0590     3.4190     0.2650 ha         1 6GX       0.125000
     47 H17          0.6610     3.6640    -0.3490 ha         1 6GX       0.142000
     48 H18         -1.5290    -0.2410    -0.5650 h1         1 6GX       0.055700
     49 H19         -1.8490     0.2680     1.0820 h1         1 6GX       0.055700
     50 H20         -2.8730     2.9270    -1.0550 ha         1 6GX       0.128000
     51 H21         -5.2030     3.4170    -1.6680 ha         1 6GX       0.115000
     52 H22         -6.9630     1.7400    -1.2670 ha         1 6GX       0.117000
     53 H23         -3.5880    -1.3130     1.4580 hc         1 6GX       0.045700
     54 H24         -4.6920    -2.1010     0.3440 hc         1 6GX       0.045700
     55 H25         -3.0420    -1.7790    -0.1430 hc         1 6GX       0.045700
     56 H26         -6.4100    -0.8390     1.8940 ha         1 6GX       0.115500
     57 H27         -8.2980    -2.3670     2.2740 ha         1 6GX       0.112500
     58 H28         -9.7220    -3.0840     0.3780 ha         1 6GX       0.112000
     59 H29         -9.2320    -2.2540    -1.9030 ha         1 6GX       0.112500
     60 H30         -7.3370    -0.7320    -2.2840 ha         1 6GX       0.115500
@<TRIPOS>BOND
     1     1    11 1   
     2     1    12 1   
     3     2     3 2   
     4     3     4 1   
     5     3     5 1   
     6     4    32 1   
     7     4    33 1   
     8     4    34 1   
     9     5     6 1   
    10     5    35 1   
    11     6     7 1   
    12     6    36 1   
    13     6    37 1   
    14     7     8 1   
    15     7    38 1   
    16     7    39 1   
    17     8     9 1   
    18     8    40 1   
    19     9    10 1   
    20     9    41 1   
    21     9    42 1   
    22    10    11 ar  
    23    10    14 ar  
    24    11    13 ar  
    25    12    43 1   
    26    12    44 1   
    27    12    45 1   
    28    13    16 ar  
    29    14    15 ar  
    30    14    46 1   
    31    15    16 ar  
    32    15    47 1   
    33    16    17 1   
    34    17    18 1   
    35    18    19 1   
    36    18    48 1   
    37    18    49 1   
    38    19    20 ar  
    39    19    24 ar  
    40    20    21 ar  
    41    20    50 1   
    42    21    22 ar  
    43    21    51 1   
    44    22    23 ar  
    45    22    52 1   
    46    23    24 ar  
    47    23    26 1   
    48    24    25 1   
    49    25    53 1   
    50    25    54 1   
    51    25    55 1   
    52    26    27 ar  
    53    26    31 ar  
    54    27    28 ar  
    55    27    56 1   
    56    28    29 ar  
    57    28    57 1   
    58    29    30 ar  
    59    29    58 1   
    60    30    31 ar  
    61    30    59 1   
    62    31    60 1   
@<TRIPOS>SUBSTRUCTURE
     1 6GX         1 TEMP              0 ****  ****    0 ROOT
