@<TRIPOS>MOLECULE
6GY
   79    83     1     0     0
SMALL
abcg2


@<TRIPOS>ATOM
      1 C1           4.2330     2.4560    -0.2400 ca         1 6GY      -0.118000
      2 C2           4.4640     1.0750    -0.4400 ca         1 6GY       0.443900
      3 C3          10.2360    -0.4790    -0.0220 c3         1 6GY      -0.478100
      4 C4           2.2170     0.7270    -0.2030 ca         1 6GY       0.425900
      5 C6           2.9360     2.8500    -0.0260 ca         1 6GY       0.177900
      6 C9          -0.8460     1.0520    -0.5500 ca         1 6GY      -0.065000
      7 C10         -2.2330     1.1190    -0.4710 ca         1 6GY      -0.181000
      8 C11         -2.9690     0.0680     0.0700 ca         1 6GY       0.298000
      9 C12         -2.2630    -1.0460     0.5500 ca         1 6GY      -0.210000
     10 C13         -0.8830    -1.1100     0.4740 ca         1 6GY       0.123100
     11 O14         -0.1500    -2.1520     0.9150 os         1 6GY      -0.354100
     12 C15         -0.8150    -3.2750     1.4590 c3         1 6GY       0.151900
     13 C18         -6.4890     1.3230     0.2680 c6         1 6GY      -0.080400
     14 C26        -10.7980     1.3270     0.2000 c6         1 6GY       0.161800
     15 N3           3.4430     0.2390    -0.4060 nb         1 6GY      -0.328000
     16 N5           1.9100     2.0050    -0.0070 nb         1 6GY      -0.258000
     17 N7           1.2400    -0.2110    -0.1970 nu         1 6GY      -0.918900
     18 C8          -0.1450    -0.0490    -0.0890 ca         1 6GY       0.254000
     19 N16         -4.3660     0.0830     0.1710 nh         1 6GY      -0.771400
     20 C17         -5.0250     1.3340    -0.1430 c6         1 6GY       0.190800
     21 C19         -7.2530     0.1760    -0.3920 c6         1 6GY       0.186500
     22 C20         -6.5160    -1.1140    -0.0410 c6         1 6GY      -0.080400
     23 C21         -5.0510    -1.0530    -0.4360 c6         1 6GY       0.190800
     24 N22         -8.6550     0.1350     0.0200 n3         1 6GY      -0.714600
     25 C23         -9.3790    -0.9580    -0.6130 c6         1 6GY       0.163800
     26 C24        -10.8260    -1.0040    -0.1620 c6         1 6GY       0.161800
     27 N25        -11.5030     0.2420    -0.4450 n3         1 6GY      -0.715600
     28 C27         -9.3520     1.3830    -0.2530 c6         1 6GY       0.163800
     29 C28        -12.8950     0.1970    -0.0630 c3         1 6GY       0.153100
     30 N29          5.7210     0.6170    -0.6500 nu         1 6GY      -0.968900
     31 C30          6.1310    -0.6850    -0.9500 ca         1 6GY       0.393000
     32 C31          7.4380    -1.0770    -0.5990 ca         1 6GY      -0.379500
     33 C32          7.8800    -2.3580    -0.9200 ca         1 6GY      -0.036000
     34 C33          7.0590    -3.2590    -1.5760 ca         1 6GY      -0.152000
     35 C34          5.7780    -2.8630    -1.9310 ca         1 6GY      -0.051000
     36 C35          5.3160    -1.5930    -1.6300 ca         1 6GY      -0.137000
     37 P1           8.5420     0.0690     0.2770 py         1 6GY       1.186500
     38 C37          8.2320    -0.2070     2.0370 c3         1 6GY      -0.478100
     39 O41          8.2970     1.4990    -0.1550 o          1 6GY      -0.561000
     40 CL           5.5160     3.6100    -0.2760 cl         1 6GY      -0.157000
     41 H1          10.4400    -0.5010    -1.0920 hc         1 6GY       0.082367
     42 H2          10.9050     0.2410     0.4480 hc         1 6GY       0.082367
     43 H3          10.4390    -1.4600     0.4030 hc         1 6GY       0.082367
     44 H4           2.7090     3.8980     0.1330 h4         1 6GY       0.032100
     45 H5          -0.3110     1.8780    -0.9940 ha         1 6GY       0.141000
     46 H6          -2.7200     1.9970    -0.8690 ha         1 6GY       0.117000
     47 H7          -2.8120    -1.8540     1.0150 ha         1 6GY       0.123000
     48 H8          -1.4950    -3.7350     0.7380 h1         1 6GY       0.041367
     49 H9          -0.0410    -3.9920     1.7220 h1         1 6GY       0.041367
     50 H10         -1.3770    -3.0170     2.3600 h1         1 6GY       0.041367
     51 H11         -6.5740     1.2340     1.3550 hc         1 6GY       0.055200
     52 H12         -6.8960     2.2950    -0.0100 hc         1 6GY       0.055200
     53 H13        -11.2790     2.2740    -0.0580 h1         1 6GY       0.037200
     54 H14        -10.8310     1.2360     1.3000 h1         1 6GY       0.037200
     55 H15          1.5790    -1.1570    -0.2710 hn         1 6GY       0.520000
     56 H16         -4.9580     1.5700    -1.2180 h1         1 6GY       0.036700
     57 H17         -4.5220     2.1440     0.3880 h1         1 6GY       0.036700
     58 H18         -7.1840     0.3160    -1.4900 h1         1 6GY       0.019700
     59 H19         -6.6040    -1.2970     1.0340 hc         1 6GY       0.055200
     60 H20         -6.9420    -1.9780    -0.5520 hc         1 6GY       0.055200
     61 H21         -4.9700    -1.0060    -1.5340 h1         1 6GY       0.036700
     62 H22         -4.5730    -1.9810    -0.1280 h1         1 6GY       0.036700
     63 H24         -9.3410    -0.8810    -1.7140 h1         1 6GY       0.037700
     64 H25         -8.9290    -1.9130    -0.3440 h1         1 6GY       0.037700
     65 H26        -11.3310    -1.8180    -0.6870 h1         1 6GY       0.037200
     66 H27        -10.8600    -1.2480     0.9150 h1         1 6GY       0.037200
     67 H29         -9.3200     1.6370    -1.3270 h1         1 6GY       0.037700
     68 H30         -8.8760     2.2030     0.2830 h1         1 6GY       0.037700
     69 H31        -13.3870     1.1350    -0.3230 h1         1 6GY       0.030367
     70 H32        -13.4030    -0.6080    -0.5980 h1         1 6GY       0.030367
     71 H33        -13.0430     0.0270     1.0160 h1         1 6GY       0.030367
     72 H34          6.4870     1.2820    -0.5290 hn         1 6GY       0.561000
     73 H35          8.8830    -2.6660    -0.6540 ha         1 6GY       0.103000
     74 H36          7.4170    -4.2520    -1.8130 ha         1 6GY       0.116000
     75 H37          5.1260    -3.5460    -2.4600 ha         1 6GY       0.114000
     76 H38          4.3200    -1.3100    -1.9290 ha         1 6GY       0.144000
     77 H39          8.8880     0.4320     2.6280 hc         1 6GY       0.082367
     78 H40          7.1970     0.0400     2.2710 hc         1 6GY       0.082367
     79 H41          8.4160    -1.2470     2.3050 hc         1 6GY       0.082367
@<TRIPOS>BOND
     1     1     2 ar  
     2     1     5 ar  
     3     1    40 1   
     4     2    15 ar  
     5     2    30 1   
     6     3    37 1   
     7     3    41 1   
     8     3    42 1   
     9     3    43 1   
    10     4    15 ar  
    11     4    16 ar  
    12     4    17 1   
    13     5    16 ar  
    14     5    44 1   
    15     6     7 ar  
    16     6    18 ar  
    17     6    45 1   
    18     7     8 ar  
    19     7    46 1   
    20     8     9 ar  
    21     8    19 1   
    22     9    10 ar  
    23     9    47 1   
    24    10    11 1   
    25    10    18 ar  
    26    11    12 1   
    27    12    48 1   
    28    12    49 1   
    29    12    50 1   
    30    13    20 1   
    31    13    21 1   
    32    13    51 1   
    33    13    52 1   
    34    14    27 1   
    35    14    28 1   
    36    14    53 1   
    37    14    54 1   
    38    17    18 1   
    39    17    55 1   
    40    19    20 1   
    41    19    23 1   
    42    20    56 1   
    43    20    57 1   
    44    21    22 1   
    45    21    24 1   
    46    21    58 1   
    47    22    23 1   
    48    22    59 1   
    49    22    60 1   
    50    23    61 1   
    51    23    62 1   
    52    24    25 1   
    53    24    28 1   
    54    25    26 1   
    55    25    63 1   
    56    25    64 1   
    57    26    27 1   
    58    26    65 1   
    59    26    66 1   
    60    27    29 1   
    61    28    67 1   
    62    28    68 1   
    63    29    69 1   
    64    29    70 1   
    65    29    71 1   
    66    30    31 1   
    67    30    72 1   
    68    31    32 ar  
    69    31    36 ar  
    70    32    33 ar  
    71    32    37 1   
    72    33    34 ar  
    73    33    73 1   
    74    34    35 ar  
    75    34    74 1   
    76    35    36 ar  
    77    35    75 1   
    78    36    76 1   
    79    37    38 1   
    80    37    39 2   
    81    38    77 1   
    82    38    78 1   
    83    38    79 1   
@<TRIPOS>SUBSTRUCTURE
     1 6GY         1 TEMP              0 ****  ****    0 ROOT
