@<TRIPOS>MOLECULE
6GY
   79    83     1     0     0
SMALL
No Charge or Current Charge


@<TRIPOS>ATOM
      1 C1           4.4590     2.5270    -0.7120 ca         1 6GY      -0.118000
      2 C2           4.5970     1.1270    -0.6900 ca         1 6GY       0.443900
      3 C3          10.2590    -0.3890     0.5140 c3         1 6GY      -0.478100
      4 C4           2.3270     0.9100    -0.6250 ca         1 6GY       0.425900
      5 C6           3.1540     3.0430    -0.6910 ca         1 6GY       0.177900
      6 C9          -0.8140     1.2260    -1.1350 ca         1 6GY      -0.065000
      7 C10         -2.2190     1.2790    -1.1470 ca         1 6GY      -0.181000
      8 C11         -2.9820     0.2320    -0.6000 ca         1 6GY       0.298000
      9 C12         -2.3230    -0.8770    -0.0470 ca         1 6GY      -0.210000
     10 C13         -0.9110    -0.9430    -0.0290 ca         1 6GY       0.123100
     11 O14         -0.2410    -2.0360     0.5060 os         1 6GY      -0.354100
     12 C15         -0.9310    -3.1650     1.0710 c3         1 6GY       0.151900
     13 C18         -6.5030     1.3850     0.1340 c6         1 6GY      -0.080400
     14 C26        -10.8990     1.1420     0.9090 c6         1 6GY       0.161800
     15 N3           3.5280     0.3180    -0.6290 nb         1 6GY      -0.328000
     16 N5           2.0800     2.2320    -0.6440 nb         1 6GY      -0.258000
     17 N7           1.2650     0.0260    -0.5400 nu         1 6GY      -0.918900
     18 C8          -0.1420     0.1250    -0.5640 ca         1 6GY       0.254000
     19 N16         -4.3930     0.2700    -0.6060 nh         1 6GY      -0.771400
     20 C17         -5.1260     1.5580    -0.5460 c6         1 6GY       0.190800
     21 C19         -7.3720     0.2870    -0.5570 c6         1 6GY       0.186500
     22 C20         -6.5290    -1.0240    -0.6230 c6         1 6GY      -0.080400
     23 C21         -5.1550    -0.8020    -1.2920 c6         1 6GY       0.190800
     24 N22         -8.6960     0.0830     0.1390 n3         1 6GY      -0.714600
     25 C23         -9.5340    -0.9870    -0.5080 c6         1 6GY       0.163800
     26 C24        -10.9240    -1.1820     0.1800 c6         1 6GY       0.161800
     27 N25        -11.7110     0.0830     0.2430 n3         1 6GY      -0.715600
     28 C27         -9.5090     1.3470     0.2250 c6         1 6GY       0.163800
     29 C28        -13.0380    -0.0990     0.8670 c3         1 6GY       0.153100
     30 N29          5.8590     0.5400    -0.6700 nu         1 6GY      -0.968900
     31 C30          6.3290    -0.7670    -0.7980 ca         1 6GY       0.393000
     32 C31          7.5160    -1.1720    -0.1570 ca         1 6GY      -0.379500
     33 C32          7.9610    -2.5080    -0.2850 ca         1 6GY      -0.036000
     34 C33          7.2450    -3.4230    -1.0690 ca         1 6GY      -0.152000
     35 C34          6.0830    -3.0150    -1.7340 ca         1 6GY      -0.051000
     36 C35          5.6330    -1.6930    -1.5980 ca         1 6GY      -0.137000
     37 P1           8.5020    -0.0350     0.8680 py         1 6GY       1.186500
     38 C37          8.3150    -0.6500     2.5760 c3         1 6GY      -0.478100
     39 O41          8.1490     1.4050     0.7250 o          1 6GY      -0.561000
     40 Cl           5.8520     3.6130    -0.7630 cl         1 6GY      -0.157000
     41 H1          10.4040    -0.4430    -0.5700 hc         1 6GY       0.082367
     42 H2          10.8730     0.4200     0.9220 hc         1 6GY       0.082367
     43 H3          10.5600    -1.3360     0.9720 hc         1 6GY       0.082367
     44 H4           2.9630     4.1150    -0.7060 h4         1 6GY       0.032100
     45 H5          -0.2600     2.0380    -1.5910 ha         1 6GY       0.141000
     46 H6          -2.7100     2.1340    -1.6020 ha         1 6GY       0.117000
     47 H7          -2.9250    -1.6750     0.3730 ha         1 6GY       0.123000
     48 H8          -1.5720    -3.6470     0.3220 h1         1 6GY       0.041367
     49 H9          -0.2100    -3.9100     1.4310 h1         1 6GY       0.041367
     50 H10         -1.5530    -2.8570     1.9220 h1         1 6GY       0.041367
     51 H11         -6.3590     1.1330     1.1930 hc         1 6GY       0.055200
     52 H12         -7.0020     2.3600     0.1040 hc         1 6GY       0.055200
     53 H13        -11.4400     2.0990     0.8970 h1         1 6GY       0.037200
     54 H14        -10.7320     0.8820     1.9650 h1         1 6GY       0.037200
     55 H15          1.5760    -0.9130    -0.2900 hn         1 6GY       0.520000
     56 H16         -5.2690     1.9580    -1.5610 h1         1 6GY       0.036700
     57 H17         -4.5480     2.3000     0.0250 h1         1 6GY       0.036700
     58 H18         -7.5600     0.6140    -1.5910 h1         1 6GY       0.019700
     59 H19         -6.3830    -1.4250     0.3890 hc         1 6GY       0.055200
     60 H20         -7.0470    -1.7980    -1.2010 hc         1 6GY       0.055200
     61 H21         -5.3050    -0.5330    -2.3480 h1         1 6GY       0.036700
     62 H22         -4.5980    -1.7500    -1.2750 h1         1 6GY       0.036700
     63 H24         -9.7000    -0.7480    -1.5690 h1         1 6GY       0.037700
     64 H25         -9.0280    -1.9610    -0.4700 h1         1 6GY       0.037700
     65 H26        -11.4840    -1.9500    -0.3740 h1         1 6GY       0.037200
     66 H27        -10.7590    -1.5760     1.1940 h1         1 6GY       0.037200
     67 H29         -9.6730     1.7600    -0.7820 h1         1 6GY       0.037700
     68 H30         -8.9850     2.1150     0.8090 h1         1 6GY       0.037700
     69 H31        -13.6040     0.8420     0.8540 h1         1 6GY       0.030367
     70 H32        -13.6220    -0.8520     0.3220 h1         1 6GY       0.030367
     71 H33        -12.9400    -0.4270     1.9110 h1         1 6GY       0.030367
     72 H34          6.5790     1.2200    -0.4140 hn         1 6GY       0.561000
     73 H35          8.8640    -2.8460     0.2200 ha         1 6GY       0.103000
     74 H36          7.5970    -4.4480    -1.1660 ha         1 6GY       0.116000
     75 H37          5.5320    -3.7190    -2.3540 ha         1 6GY       0.114000
     76 H38          4.7420    -1.3890    -2.1360 ha         1 6GY       0.144000
     77 H39          8.9630    -0.0720     3.2430 hc         1 6GY       0.082367
     78 H40          7.2720    -0.5300     2.8850 hc         1 6GY       0.082367
     79 H41          8.5890    -1.7090     2.6240 hc         1 6GY       0.082367
@<TRIPOS>BOND
     1     1     2 ar  
     2     1     5 ar  
     3     1    40 1   
     4     2    15 ar  
     5     2    30 1   
     6     3    37 1   
     7     3    41 1   
     8     3    42 1   
     9     3    43 1   
    10     4    15 ar  
    11     4    16 ar  
    12     4    17 1   
    13     5    16 ar  
    14     5    44 1   
    15     6     7 ar  
    16     6    18 ar  
    17     6    45 1   
    18     7     8 ar  
    19     7    46 1   
    20     8     9 ar  
    21     8    19 1   
    22     9    10 ar  
    23     9    47 1   
    24    10    11 1   
    25    10    18 ar  
    26    11    12 1   
    27    12    48 1   
    28    12    49 1   
    29    12    50 1   
    30    13    20 1   
    31    13    21 1   
    32    13    51 1   
    33    13    52 1   
    34    14    27 1   
    35    14    28 1   
    36    14    53 1   
    37    14    54 1   
    38    17    18 1   
    39    17    55 1   
    40    19    20 1   
    41    19    23 1   
    42    20    56 1   
    43    20    57 1   
    44    21    22 1   
    45    21    24 1   
    46    21    58 1   
    47    22    23 1   
    48    22    59 1   
    49    22    60 1   
    50    23    61 1   
    51    23    62 1   
    52    24    25 1   
    53    24    28 1   
    54    25    26 1   
    55    25    63 1   
    56    25    64 1   
    57    26    27 1   
    58    26    65 1   
    59    26    66 1   
    60    27    29 1   
    61    28    67 1   
    62    28    68 1   
    63    29    69 1   
    64    29    70 1   
    65    29    71 1   
    66    30    31 1   
    67    30    72 1   
    68    31    32 ar  
    69    31    36 ar  
    70    32    33 ar  
    71    32    37 1   
    72    33    34 ar  
    73    33    73 1   
    74    34    35 ar  
    75    34    74 1   
    76    35    36 ar  
    77    35    75 1   
    78    36    76 1   
    79    37    38 1   
    80    37    39 2   
    81    38    77 1   
    82    38    78 1   
    83    38    79 1   
@<TRIPOS>SUBSTRUCTURE
     1 6GY         1 TEMP              0 ****  ****    0 ROOT
