@<TRIPOS>MOLECULE
6GZ
   59    62     1     0     0
SMALL
No Charge or Current Charge


@<TRIPOS>ATOM
      1 Br           0.6810    -3.1430     0.3390 br         1 6GZ      -0.128100
      2 C16          1.3190    -1.3590     0.6410 ca         1 6GZ      -0.064900
      3 C15          2.7050    -1.1330     0.7000 ca         1 6GZ      -0.065000
      4 C7           3.2040     0.1650     0.9200 ca         1 6GZ      -0.088300
      5 C8           4.7070     0.4180     0.9790 c3         1 6GZ       0.225100
      6 N            5.2140     1.2700    -0.1360 n3         1 6GZ      -0.692600
      7 C13          6.6990     1.5950    -0.0630 c6         1 6GZ       0.044500
      8 C14          7.2610     2.3610     1.2080 c          1 6GZ       0.723000
      9 O2           7.1820     1.8160     2.3030 o          1 6GZ      -0.727500
     10 O1           7.4090     3.5740     1.1070 o          1 6GZ      -0.727500
     11 C12          7.5710     0.3460    -0.3970 c6         1 6GZ      -0.089400
     12 C11          7.1910    -0.2580    -1.7710 c6         1 6GZ      -0.077400
     13 C10          5.6680    -0.5200    -1.8620 c6         1 6GZ      -0.110400
     14 C9           4.8650     0.7570    -1.4950 c6         1 6GZ       0.165800
     15 C6           2.3030     1.2350     1.0790 ca         1 6GZ      -0.021000
     16 C5           0.9150     1.0130     1.0210 ca         1 6GZ      -0.208000
     17 C4           0.4150    -0.2900     0.8010 ca         1 6GZ       0.143100
     18 O           -0.9390    -0.5570     0.7350 os         1 6GZ      -0.342100
     19 C3          -1.9370     0.4660     0.9010 c3         1 6GZ       0.210900
     20 C2          -3.3430    -0.1470     0.7920 ca         1 6GZ      -0.082300
     21 C17         -3.5490    -1.4730     1.2300 ca         1 6GZ      -0.073000
     22 C18         -4.8130    -2.0690     1.1450 ca         1 6GZ      -0.122000
     23 C19         -5.8870    -1.3490     0.6120 ca         1 6GZ      -0.101000
     24 C20         -5.7270    -0.0170     0.1660 cp         1 6GZ      -0.049000
     25 C1          -4.4430     0.6000     0.2820 ca         1 6GZ      -0.055300
     26 C           -4.2460     2.0710    -0.1080 c3         1 6GZ      -0.056800
     27 C21         -6.9140     0.6840    -0.4120 cp         1 6GZ      -0.027000
     28 C26         -6.8810     1.2280    -1.7200 ca         1 6GZ      -0.100000
     29 C25         -8.0060     1.8720    -2.2630 ca         1 6GZ      -0.114500
     30 C24         -9.1870     1.9770    -1.5110 ca         1 6GZ      -0.114000
     31 C23         -9.2440     1.4340    -0.2170 ca         1 6GZ      -0.114500
     32 C22         -8.1180     0.7900     0.3250 ca         1 6GZ      -0.100000
     33 H1           3.3920    -1.9670     0.5720 ha         1 6GZ       0.119000
     34 H2           4.9070     0.9010     1.9430 h1         1 6GZ       0.046200
     35 H3           5.2300    -0.5480     0.9980 h1         1 6GZ       0.046200
     36 H5           6.8990     2.3050    -0.8800 h1         1 6GZ       0.040700
     37 H7           8.6320     0.6300    -0.4070 hc         1 6GZ       0.046700
     38 H8           7.4650    -0.4130     0.3900 hc         1 6GZ       0.046700
     39 H9           7.4910     0.4340    -2.5700 hc         1 6GZ       0.019700
     40 H10          7.7450    -1.1910    -1.9400 hc         1 6GZ       0.019700
     41 H11          5.4080    -0.8390    -2.8800 hc         1 6GZ       0.023200
     42 H12          5.3890    -1.3490    -1.1990 hc         1 6GZ       0.023200
     43 H13          3.7890     0.5460    -1.5770 h1         1 6GZ       0.036200
     44 H14          5.0830     1.5310    -2.2460 h1         1 6GZ       0.036200
     45 H15          2.6860     2.2420     1.2410 ha         1 6GZ       0.176000
     46 H16          0.2500     1.8620     1.1470 ha         1 6GZ       0.111000
     47 H17         -1.8360     0.9460     1.8830 h1         1 6GZ       0.045200
     48 H18         -1.7990     1.2310     0.1280 h1         1 6GZ       0.045200
     49 H19         -2.7250    -2.0510     1.6450 ha         1 6GZ       0.141000
     50 H20         -4.9570    -3.0920     1.4840 ha         1 6GZ       0.111000
     51 H21         -6.8610    -1.8280     0.5350 ha         1 6GZ       0.109000
     52 H22         -3.8120     2.1580    -1.1100 hc         1 6GZ       0.046033
     53 H23         -5.1860     2.6340    -0.1000 hc         1 6GZ       0.046033
     54 H24         -3.5860     2.5930     0.5950 hc         1 6GZ       0.046033
     55 H25         -5.9760     1.1420    -2.3150 ha         1 6GZ       0.116500
     56 H26         -7.9620     2.2870    -3.2680 ha         1 6GZ       0.109000
     57 H27        -10.0580     2.4760    -1.9310 ha         1 6GZ       0.107000
     58 H28        -10.1590     1.5110     0.3660 ha         1 6GZ       0.109000
     59 H29         -8.1720     0.3730     1.3280 ha         1 6GZ       0.116500
@<TRIPOS>BOND
     1     1     2 1   
     2     2     3 ar  
     3     2    17 ar  
     4     3     4 ar  
     5     3    33 1   
     6     4     5 1   
     7     4    15 ar  
     8     5     6 1   
     9     5    34 1   
    10     5    35 1   
    11     6     7 1   
    12     6    14 1   
    13     7     8 1   
    14     7    11 1   
    15     7    36 1   
    16     8     9 1   
    17     8    10 1   
    18    11    12 1   
    19    11    37 1   
    20    11    38 1   
    21    12    13 1   
    22    12    39 1   
    23    12    40 1   
    24    13    14 1   
    25    13    41 1   
    26    13    42 1   
    27    14    43 1   
    28    14    44 1   
    29    15    16 ar  
    30    15    45 1   
    31    16    17 ar  
    32    16    46 1   
    33    17    18 1   
    34    18    19 1   
    35    19    20 1   
    36    19    47 1   
    37    19    48 1   
    38    20    21 ar  
    39    20    25 ar  
    40    21    22 ar  
    41    21    49 1   
    42    22    23 ar  
    43    22    50 1   
    44    23    24 ar  
    45    23    51 1   
    46    24    25 ar  
    47    24    27 1   
    48    25    26 1   
    49    26    52 1   
    50    26    53 1   
    51    26    54 1   
    52    27    28 ar  
    53    27    32 ar  
    54    28    29 ar  
    55    28    55 1   
    56    29    30 ar  
    57    29    56 1   
    58    30    31 ar  
    59    30    57 1   
    60    31    32 ar  
    61    31    58 1   
    62    32    59 1   
@<TRIPOS>SUBSTRUCTURE
     1 6GZ         1 TEMP              0 ****  ****    0 ROOT
