@<TRIPOS>MOLECULE
6GZ
   59    62     1     0     0
SMALL
abcg2


@<TRIPOS>ATOM
      1 BR           0.5800    -3.3040     0.5370 br         1 6GZ      -0.128100
      2 C16          1.2210    -1.5300     0.5390 ca         1 6GZ      -0.064900
      3 C15          2.5810    -1.2930     0.6730 ca         1 6GZ      -0.065000
      4 C7           3.0760     0.0050     0.6770 ca         1 6GZ      -0.088300
      5 C8           4.5480     0.2930     0.8120 c3         1 6GZ       0.225100
      6 N            5.0740     0.8350    -0.4300 n3         1 6GZ      -0.692600
      7 C13          6.2170     1.7280    -0.2990 c6         1 6GZ       0.044500
      8 C14          5.9370     2.9850     0.5640 c          1 6GZ       0.723000
      9 O2           4.7540     3.3630     0.6780 o          1 6GZ      -0.727500
     10 O1           6.9380     3.5590     1.0380 o          1 6GZ      -0.727500
     11 C12          7.5110     0.9950     0.0640 c6         1 6GZ      -0.089400
     12 C11          7.7950    -0.1070    -0.9540 c6         1 6GZ      -0.077400
     13 C10          6.5900    -1.0260    -1.1130 c6         1 6GZ      -0.110400
     14 C9           5.3370    -0.2050    -1.4120 c6         1 6GZ       0.165800
     15 C6           2.1740     1.0530     0.5310 ca         1 6GZ      -0.021000
     16 C5           0.8150     0.8230     0.4050 ca         1 6GZ      -0.208000
     17 C4           0.3140    -0.4790     0.4020 ca         1 6GZ       0.143100
     18 O           -0.9860    -0.7940     0.2770 os         1 6GZ      -0.342100
     19 C3          -1.9360     0.2460     0.2560 c3         1 6GZ       0.210900
     20 C2          -3.3230    -0.3340     0.1890 ca         1 6GZ      -0.082300
     21 C17         -3.5360    -1.7070     0.2150 ca         1 6GZ      -0.073000
     22 C18         -4.8240    -2.2160     0.1470 ca         1 6GZ      -0.122000
     23 C19         -5.9000    -1.3540     0.0430 ca         1 6GZ      -0.101000
     24 C20         -5.7050     0.0260    -0.0030 cp         1 6GZ      -0.049000
     25 C1          -4.4080     0.5510     0.0870 ca         1 6GZ      -0.055300
     26 C           -4.1620     2.0350     0.0860 c3         1 6GZ      -0.056800
     27 C21         -6.8970     0.8940    -0.1540 cp         1 6GZ      -0.027000
     28 C26         -7.0260     1.7570    -1.2420 ca         1 6GZ      -0.100000
     29 C25         -8.1630     2.5370    -1.3980 ca         1 6GZ      -0.114500
     30 C24         -9.1900     2.4690    -0.4650 ca         1 6GZ      -0.114000
     31 C23         -9.0710     1.6160     0.6230 ca         1 6GZ      -0.114500
     32 C22         -7.9370     0.8300     0.7730 ca         1 6GZ      -0.100000
     33 H1           3.2650    -2.1260     0.7830 ha         1 6GZ       0.119000
     34 H2           4.6770     1.0380     1.5960 h1         1 6GZ       0.046200
     35 H3           5.0670    -0.6150     1.1520 h1         1 6GZ       0.046200
     36 H5           6.3800     2.1360    -1.3120 h1         1 6GZ       0.040700
     37 H7           8.3410     1.7010     0.1000 hc         1 6GZ       0.046700
     38 H8           7.4320     0.5610     1.0680 hc         1 6GZ       0.046700
     39 H9           8.0210     0.3570    -1.9220 hc         1 6GZ       0.019700
     40 H10          8.6850    -0.6770    -0.6790 hc         1 6GZ       0.019700
     41 H11          6.7560    -1.7530    -1.9120 hc         1 6GZ       0.023200
     42 H12          6.4570    -1.6150    -0.2000 hc         1 6GZ       0.023200
     43 H13          4.4590    -0.8520    -1.5000 h1         1 6GZ       0.036200
     44 H14          5.4600     0.2790    -2.3880 h1         1 6GZ       0.036200
     45 H15          2.5540     2.0670     0.5210 ha         1 6GZ       0.176000
     46 H16          0.1500     1.6700     0.3090 ha         1 6GZ       0.111000
     47 H17         -1.8300     0.8730     1.1510 h1         1 6GZ       0.045200
     48 H18         -1.7700     0.9020    -0.6080 h1         1 6GZ       0.045200
     49 H19         -2.7030    -2.3900     0.2940 ha         1 6GZ       0.141000
     50 H20         -4.9850    -3.2860     0.1710 ha         1 6GZ       0.111000
     51 H21         -6.9060    -1.7490    -0.0300 ha         1 6GZ       0.109000
     52 H22         -3.8630     2.3970    -0.9000 hc         1 6GZ       0.046033
     53 H23         -5.0470     2.5930     0.3840 hc         1 6GZ       0.046033
     54 H24         -3.3670     2.3140     0.7780 hc         1 6GZ       0.046033
     55 H25         -6.2390     1.8060    -1.9850 ha         1 6GZ       0.116500
     56 H26         -8.2500     3.1920    -2.2550 ha         1 6GZ       0.109000
     57 H27        -10.0780     3.0760    -0.5880 ha         1 6GZ       0.107000
     58 H28         -9.8640     1.5580     1.3580 ha         1 6GZ       0.109000
     59 H29         -7.8520     0.1710     1.6270 ha         1 6GZ       0.116500
@<TRIPOS>BOND
     1     1     2 1   
     2     2     3 ar  
     3     2    17 ar  
     4     3     4 ar  
     5     3    33 1   
     6     4     5 1   
     7     4    15 ar  
     8     5     6 1   
     9     5    34 1   
    10     5    35 1   
    11     6     7 1   
    12     6    14 1   
    13     7     8 1   
    14     7    11 1   
    15     7    36 1   
    16     8     9 1   
    17     8    10 1   
    18    11    12 1   
    19    11    37 1   
    20    11    38 1   
    21    12    13 1   
    22    12    39 1   
    23    12    40 1   
    24    13    14 1   
    25    13    41 1   
    26    13    42 1   
    27    14    43 1   
    28    14    44 1   
    29    15    16 ar  
    30    15    45 1   
    31    16    17 ar  
    32    16    46 1   
    33    17    18 1   
    34    18    19 1   
    35    19    20 1   
    36    19    47 1   
    37    19    48 1   
    38    20    21 ar  
    39    20    25 ar  
    40    21    22 ar  
    41    21    49 1   
    42    22    23 ar  
    43    22    50 1   
    44    23    24 ar  
    45    23    51 1   
    46    24    25 ar  
    47    24    27 1   
    48    25    26 1   
    49    26    52 1   
    50    26    53 1   
    51    26    54 1   
    52    27    28 ar  
    53    27    32 ar  
    54    28    29 ar  
    55    28    55 1   
    56    29    30 ar  
    57    29    56 1   
    58    30    31 ar  
    59    30    57 1   
    60    31    32 ar  
    61    31    58 1   
    62    32    59 1   
@<TRIPOS>SUBSTRUCTURE
     1 6GZ         1 TEMP              0 ****  ****    0 ROOT
