@<TRIPOS>MOLECULE
6H0
   51    52     1     0     0
SMALL
abcg2


@<TRIPOS>ATOM
      1 O1          -9.9420    -3.4360     1.3890 o          1 6H0      -0.601100
      2 C2         -10.0050    -2.9410     0.2750 c          1 6H0       0.596900
      3 C4          -7.8560    -1.7740     0.4230 c3         1 6H0       0.100000
      4 C5          -7.0010    -0.8740    -0.4520 c3         1 6H0      -0.093400
      5 C6          -5.7130    -0.4700     0.2540 c3         1 6H0      -0.080400
      6 C7          -4.8910     0.4670    -0.6050 c3         1 6H0       0.165600
      7 C8          -2.8460     1.6760    -0.4420 ca         1 6H0       0.145100
      8 C9          -3.0230     2.2810    -1.6850 ca         1 6H0      -0.191000
      9 N3          -9.0760    -2.1490    -0.2630 ns         1 6H0      -0.520900
     10 O7          -3.7060     0.7950     0.1030 os         1 6H0      -0.346100
     11 C13         -1.7150     1.9820     0.3170 ca         1 6H0      -0.127000
     12 C10         -2.0740     3.1850    -2.1460 ca         1 6H0      -0.074000
     13 C11         -0.9540     3.4940    -1.3910 ca         1 6H0      -0.138000
     14 C12         -0.7740     2.8880    -0.1490 ca         1 6H0      -0.081300
     15 C14          0.4540     3.1800     0.6680 c3         1 6H0       0.148300
     16 N15          1.4570     2.1580     0.4270 ns         1 6H0      -0.498900
     17 C16          2.5340     2.0130     1.2120 c          1 6H0       0.603700
     18 O17          2.7470     2.7120     2.1920 o          1 6H0      -0.592100
     19 C18          3.4880     0.9270     0.8170 ca         1 6H0      -0.096600
     20 C19          3.0710    -0.2260     0.1560 ca         1 6H0      -0.096500
     21 C20          3.9830    -1.2130    -0.1750 ca         1 6H0      -0.019500
     22 C21          5.3190    -1.0370     0.1590 ca         1 6H0      -0.251500
     23 S24          6.4810    -2.3050    -0.2700 sy         1 6H0       1.126600
     24 O27          7.6930    -2.0730     0.5030 o          1 6H0      -0.541000
     25 O25          5.8310    -3.6030    -0.1760 o          1 6H0      -0.541000
     26 N26          6.6860    -2.0160    -1.8820 n8         1 6H0      -1.008100
     27 C22          5.7510     0.0970     0.8290 ca         1 6H0      -0.019500
     28 C23          4.8270     1.0740     1.1630 ca         1 6H0      -0.096500
     29 H1         -10.8560    -3.1080    -0.4030 h5         1 6H0       0.007200
     30 H2          -7.2940    -2.6720     0.6950 h1         1 6H0       0.054700
     31 H3          -8.0990    -1.2600     1.3570 h1         1 6H0       0.054700
     32 H4          -6.7630    -1.3900    -1.3870 hc         1 6H0       0.043700
     33 H5          -7.5710     0.0210    -0.7210 hc         1 6H0       0.043700
     34 H6          -5.9500     0.0220     1.2020 hc         1 6H0       0.061700
     35 H7          -5.1280    -1.3630     0.4920 hc         1 6H0       0.061700
     36 H8          -4.6430    -0.0090    -1.5610 h1         1 6H0       0.034200
     37 H9          -5.4650     1.3730    -0.8270 h1         1 6H0       0.034200
     38 H10         -3.8850     2.0660    -2.3020 ha         1 6H0       0.118000
     39 H11         -9.2370    -1.7990    -1.1930 hn         1 6H0       0.311500
     40 H12         -1.5820     1.5080     1.2820 ha         1 6H0       0.134000
     41 H13         -2.2200     3.6510    -3.1110 ha         1 6H0       0.114000
     42 H14         -0.2230     4.2010    -1.7610 ha         1 6H0       0.118000
     43 H15          0.8470     4.1690     0.4140 h1         1 6H0       0.062200
     44 H16          0.2110     3.1920     1.7310 h1         1 6H0       0.062200
     45 H17          1.4180     1.6710    -0.4540 hn         1 6H0       0.321500
     46 H18          2.0290    -0.3840    -0.0870 ha         1 6H0       0.131500
     47 H19          3.6450    -2.1090    -0.6790 ha         1 6H0       0.140500
     48 H20          7.2980    -1.2270    -2.0660 hn         1 6H0       0.475500
     49 H21          7.0140    -2.8420    -2.3720 hn         1 6H0       0.475500
     50 H22          6.7910     0.2270     1.0950 ha         1 6H0       0.140500
     51 H23          5.1570     1.9590     1.6890 ha         1 6H0       0.131500
@<TRIPOS>BOND
     1     1     2 2   
     2     2     9 1   
     3     2    29 1   
     4     3     4 1   
     5     3     9 1   
     6     3    30 1   
     7     3    31 1   
     8     4     5 1   
     9     4    32 1   
    10     4    33 1   
    11     5     6 1   
    12     5    34 1   
    13     5    35 1   
    14     6    10 1   
    15     6    36 1   
    16     6    37 1   
    17     7     8 ar  
    18     7    10 1   
    19     7    11 ar  
    20     8    12 ar  
    21     8    38 1   
    22     9    39 1   
    23    11    14 ar  
    24    11    40 1   
    25    12    13 ar  
    26    12    41 1   
    27    13    14 ar  
    28    13    42 1   
    29    14    15 1   
    30    15    16 1   
    31    15    43 1   
    32    15    44 1   
    33    16    17 1   
    34    16    45 1   
    35    17    18 2   
    36    17    19 1   
    37    19    20 ar  
    38    19    28 ar  
    39    20    21 ar  
    40    20    46 1   
    41    21    22 ar  
    42    21    47 1   
    43    22    23 1   
    44    22    27 ar  
    45    23    24 2   
    46    23    25 2   
    47    23    26 1   
    48    26    48 1   
    49    26    49 1   
    50    27    28 ar  
    51    27    50 1   
    52    28    51 1   
@<TRIPOS>SUBSTRUCTURE
     1 6H0         1 TEMP              0 ****  ****    0 ROOT
