@<TRIPOS>MOLECULE
6H0
   51    52     1     0     0
SMALL
No Charge or Current Charge


@<TRIPOS>ATOM
      1 O1         -10.1620    -3.4940     1.5490 o          1 6H0      -0.601100
      2 C2         -10.2920    -3.0220     0.4270 c          1 6H0       0.596900
      3 C4          -8.1080    -1.7830     0.5050 c3         1 6H0       0.100000
      4 C5          -7.2750    -0.8520    -0.3970 c3         1 6H0      -0.093400
      5 C6          -5.9530    -0.4000     0.2620 c3         1 6H0      -0.080400
      6 C7          -5.1190     0.5310    -0.6390 c3         1 6H0       0.165600
      7 C8          -2.9590     1.7070    -0.4530 ca         1 6H0       0.145100
      8 C9          -3.0720     2.2730    -1.7410 ca         1 6H0      -0.191000
      9 N3          -9.3530    -2.1930    -0.1450 ns         1 6H0      -0.520900
     10 O7          -3.9240     0.8780     0.0810 os         1 6H0      -0.346100
     11 C13         -1.8270     1.9850     0.3300 ca         1 6H0      -0.127000
     12 C10         -2.0540     3.1090    -2.2320 ca         1 6H0      -0.074000
     13 C11         -0.9240     3.3820    -1.4420 ca         1 6H0      -0.138000
     14 C12         -0.8050     2.8240    -0.1550 ca         1 6H0      -0.081300
     15 C14          0.4210     3.1140     0.6970 c3         1 6H0       0.148300
     16 N15          1.4700     2.1270     0.4590 ns         1 6H0      -0.498900
     17 C16          2.6900     2.1200     1.0990 c          1 6H0       0.603700
     18 O17          2.9660     2.9730     1.9330 o          1 6H0      -0.592100
     19 C18          3.6570     1.0130     0.7200 ca         1 6H0      -0.096600
     20 C19          3.3380     0.0260    -0.2470 ca         1 6H0      -0.096500
     21 C20          4.2600    -0.9850    -0.5730 ca         1 6H0      -0.019500
     22 C21          5.5170    -1.0310     0.0590 ca         1 6H0      -0.251500
     23 S24          6.6950    -2.3240    -0.3590 sy         1 6H0       1.126600
     24 O27          7.6920    -2.4860     0.6960 o          1 6H0      -0.541000
     25 O25          6.0220    -3.4650    -0.9780 o          1 6H0      -0.541000
     26 N26          7.5440    -1.6690    -1.5890 n8         1 6H0      -1.008100
     27 C22          5.8470    -0.0550     1.0190 ca         1 6H0      -0.019500
     28 C23          4.9250     0.9540     1.3440 ca         1 6H0      -0.096500
     29 H1         -11.1610    -3.2070    -0.2330 h5         1 6H0       0.007200
     30 H2          -7.5220    -2.6800     0.7490 h1         1 6H0       0.054700
     31 H3          -8.3510    -1.2650     1.4440 h1         1 6H0       0.054700
     32 H4          -7.0510    -1.3690    -1.3380 hc         1 6H0       0.043700
     33 H5          -7.8730     0.0330    -0.6490 hc         1 6H0       0.043700
     34 H6          -6.1750     0.1190     1.2030 hc         1 6H0       0.061700
     35 H7          -5.3530    -1.2840     0.5140 hc         1 6H0       0.061700
     36 H8          -4.8720     0.0120    -1.5740 h1         1 6H0       0.034200
     37 H9          -5.7030     1.4300    -0.8770 h1         1 6H0       0.034200
     38 H10         -3.9340     2.0770    -2.3720 ha         1 6H0       0.118000
     39 H11         -9.5520    -1.8530    -1.0790 hn         1 6H0       0.311500
     40 H12         -1.7440     1.5440     1.3210 ha         1 6H0       0.134000
     41 H13         -2.1390     3.5440    -3.2250 ha         1 6H0       0.114000
     42 H14         -0.1400     4.0280    -1.8320 ha         1 6H0       0.118000
     43 H15          0.8090     4.1150     0.4630 h1         1 6H0       0.062200
     44 H16          0.1470     3.0980     1.7610 h1         1 6H0       0.062200
     45 H17          1.2960     1.4000    -0.2210 hn         1 6H0       0.321500
     46 H18          2.3790     0.0250    -0.7580 ha         1 6H0       0.131500
     47 H19          3.9900    -1.7300    -1.3210 ha         1 6H0       0.140500
     48 H20          8.4920    -1.8020    -1.2460 hn         1 6H0       0.475500
     49 H21          7.4630    -2.4100    -2.2810 hn         1 6H0       0.475500
     50 H22          6.8160    -0.0730     1.5150 ha         1 6H0       0.140500
     51 H23          5.2030     1.6970     2.0890 ha         1 6H0       0.131500
@<TRIPOS>BOND
     1     1     2 2   
     2     2     9 1   
     3     2    29 1   
     4     3     4 1   
     5     3     9 1   
     6     3    30 1   
     7     3    31 1   
     8     4     5 1   
     9     4    32 1   
    10     4    33 1   
    11     5     6 1   
    12     5    34 1   
    13     5    35 1   
    14     6    10 1   
    15     6    36 1   
    16     6    37 1   
    17     7     8 ar  
    18     7    10 1   
    19     7    11 ar  
    20     8    12 ar  
    21     8    38 1   
    22     9    39 1   
    23    11    14 ar  
    24    11    40 1   
    25    12    13 ar  
    26    12    41 1   
    27    13    14 ar  
    28    13    42 1   
    29    14    15 1   
    30    15    16 1   
    31    15    43 1   
    32    15    44 1   
    33    16    17 1   
    34    16    45 1   
    35    17    18 2   
    36    17    19 1   
    37    19    20 ar  
    38    19    28 ar  
    39    20    21 ar  
    40    20    46 1   
    41    21    22 ar  
    42    21    47 1   
    43    22    23 1   
    44    22    27 ar  
    45    23    24 2   
    46    23    25 2   
    47    23    26 1   
    48    26    48 1   
    49    26    49 1   
    50    27    28 ar  
    51    27    50 1   
    52    28    51 1   
@<TRIPOS>SUBSTRUCTURE
     1 6H0         1 TEMP              0 ****  ****    0 ROOT
