@<TRIPOS>MOLECULE
6H1
   32    34     1     0     0
SMALL
abcg2


@<TRIPOS>ATOM
      1 C2          -0.6940    -0.8360     0.9790 ca         1 6H1      -0.070300
      2 C3          -0.9340     0.5000     0.6610 ca         1 6H1      -0.115500
      3 C4          -2.1830     0.9130     0.2300 ca         1 6H1      -0.056000
      4 C1           0.6610    -1.2850     1.4760 c3         1 6H1       0.011200
      5 C5          -3.2180    -0.0100     0.1040 ca         1 6H1      -0.196300
      6 C6          -2.9910    -1.3440     0.4070 ca         1 6H1      -0.056000
      7 C8           1.8210    -0.7150     0.7010 ca         1 6H1      -0.183300
      8 C7          -1.7360    -1.7480     0.8440 ca         1 6H1      -0.115500
      9 C9           2.0100    -1.0440    -0.6430 ca         1 6H1       0.159100
     10 C10          3.1020    -0.5510    -1.3730 ca         1 6H1      -0.132000
     11 C11          3.9730     0.2750    -0.7100 ca         1 6H1       0.092100
     12 C12          3.7910     0.6230     0.6160 ca         1 6H1       0.012100
     13 C13          2.7300     0.1450     1.3380 ca         1 6H1      -0.053000
     14 O14          4.7780     1.4830     0.9940 os         1 6H1      -0.342100
     15 O15          5.0770     0.8930    -1.1920 os         1 6H1      -0.339100
     16 C16          5.7280     1.4570    -0.0590 c5         1 6H1       0.371600
     17 O17          1.1770    -1.8690    -1.3200 oh         1 6H1      -0.536100
     18 C18         -4.5480     0.4430    -0.4070 c3         1 6H1       0.357300
     19 F19         -5.5330    -0.4040    -0.0910 f          1 6H1      -0.113000
     20 F20         -4.8910     1.6430     0.0790 f          1 6H1      -0.113000
     21 F21         -4.5530     0.5590    -1.7450 f          1 6H1      -0.113000
     22 H1          -0.1390     1.2290     0.7480 ha         1 6H1       0.125000
     23 H2          -2.3390     1.9580    -0.0020 ha         1 6H1       0.132500
     24 H3           0.7610    -0.9890     2.5230 hc         1 6H1       0.063200
     25 H4           0.6980    -2.3790     1.4770 hc         1 6H1       0.063200
     26 H5          -3.7750    -2.0830     0.3110 ha         1 6H1       0.132500
     27 H6          -1.5710    -2.7920     1.0830 ha         1 6H1       0.125000
     28 H7           3.2380    -0.8170    -2.4130 ha         1 6H1       0.151000
     29 H8           2.5840     0.4160     2.3750 ha         1 6H1       0.132000
     30 H9           6.0550     2.4700    -0.2900 h2         1 6H1       0.065700
     31 H10          0.3540    -2.0130    -0.8410 ho         1 6H1       0.474000
     32 H11          6.5840     0.8320     0.2210 h2         1 6H1       0.065700
@<TRIPOS>BOND
     1     1     2 ar  
     2     1     4 1   
     3     1     8 ar  
     4     2     3 ar  
     5     2    22 1   
     6     3     5 ar  
     7     3    23 1   
     8     4     7 1   
     9     4    24 1   
    10     4    25 1   
    11     5     6 ar  
    12     5    18 1   
    13     6     8 ar  
    14     6    26 1   
    15     7     9 ar  
    16     7    13 ar  
    17     8    27 1   
    18     9    10 ar  
    19     9    17 1   
    20    10    11 ar  
    21    10    28 1   
    22    11    12 ar  
    23    11    15 1   
    24    12    13 ar  
    25    12    14 1   
    26    13    29 1   
    27    14    16 1   
    28    15    16 1   
    29    16    30 1   
    30    16    32 1   
    31    17    31 1   
    32    18    19 1   
    33    18    20 1   
    34    18    21 1   
@<TRIPOS>SUBSTRUCTURE
     1 6H1         1 TEMP              0 ****  ****    0 ROOT
