@<TRIPOS>MOLECULE
6H1
   32    34     1     0     0
SMALL
No Charge or Current Charge


@<TRIPOS>ATOM
      1 C2          -0.6960    -0.8410     1.0440 ca         1 6H1      -0.070300
      2 C3          -0.9370     0.5210     0.7890 ca         1 6H1      -0.115500
      3 C4          -2.1810     0.9450     0.2920 ca         1 6H1      -0.056000
      4 C1           0.6600    -1.2970     1.5740 c3         1 6H1       0.011200
      5 C5          -3.2110     0.0110     0.0490 ca         1 6H1      -0.196300
      6 C6          -2.9650    -1.3560     0.3030 ca         1 6H1      -0.056000
      7 C8           1.8330    -0.7600     0.7470 ca         1 6H1      -0.183300
      8 C7          -1.7190    -1.7760     0.7990 ca         1 6H1      -0.115500
      9 C9           1.9730    -1.0640    -0.6360 ca         1 6H1       0.159100
     10 C10          3.0720    -0.5800    -1.3710 ca         1 6H1      -0.132000
     11 C11          4.0120     0.2140    -0.7070 ca         1 6H1       0.092100
     12 C12          3.8860     0.5160     0.6180 ca         1 6H1       0.012100
     13 C13          2.8110     0.0450     1.3810 ca         1 6H1      -0.053000
     14 O14          4.9060     1.2880     1.0720 os         1 6H1      -0.342100
     15 O15          5.1270     0.7550    -1.2600 os         1 6H1      -0.339100
     16 C16          5.7070     1.5160    -0.1420 c5         1 6H1       0.371600
     17 O17          1.0420    -1.8260    -1.2760 oh         1 6H1      -0.536100
     18 C18         -4.5660     0.4690    -0.5030 c3         1 6H1       0.357300
     19 F19         -5.5830    -0.3240    -0.0950 f          1 6H1      -0.113000
     20 F20         -4.8810     1.7280    -0.1180 f          1 6H1      -0.113000
     21 F21         -4.5740     0.4570    -1.8550 f          1 6H1      -0.113000
     22 H1          -0.1570     1.2570     0.9730 ha         1 6H1       0.125000
     23 H2          -2.3380     2.0040     0.0950 ha         1 6H1       0.132500
     24 H3           0.7530    -0.9770     2.6200 hc         1 6H1       0.063200
     25 H4           0.7130    -2.3920     1.6060 hc         1 6H1       0.063200
     26 H5          -3.7370    -2.0990     0.1150 ha         1 6H1       0.132500
     27 H6          -1.5550    -2.8340     0.9950 ha         1 6H1       0.125000
     28 H7           3.1860    -0.8110    -2.4250 ha         1 6H1       0.151000
     29 H8           2.7410     0.2970     2.4370 ha         1 6H1       0.132000
     30 H9           5.6910     2.5850    -0.3880 h2         1 6H1       0.065700
     31 H10          0.2650    -1.8990    -0.6830 ho         1 6H1       0.474000
     32 H11          6.7390     1.1870     0.0300 h2         1 6H1       0.065700
@<TRIPOS>BOND
     1     1     2 ar  
     2     1     4 1   
     3     1     8 ar  
     4     2     3 ar  
     5     2    22 1   
     6     3     5 ar  
     7     3    23 1   
     8     4     7 1   
     9     4    24 1   
    10     4    25 1   
    11     5     6 ar  
    12     5    18 1   
    13     6     8 ar  
    14     6    26 1   
    15     7     9 ar  
    16     7    13 ar  
    17     8    27 1   
    18     9    10 ar  
    19     9    17 1   
    20    10    11 ar  
    21    10    28 1   
    22    11    12 ar  
    23    11    15 1   
    24    12    13 ar  
    25    12    14 1   
    26    13    29 1   
    27    14    16 1   
    28    15    16 1   
    29    16    30 1   
    30    16    32 1   
    31    17    31 1   
    32    18    19 1   
    33    18    20 1   
    34    18    21 1   
@<TRIPOS>SUBSTRUCTURE
     1 6H1         1 TEMP              0 ****  ****    0 ROOT
