@<TRIPOS>MOLECULE
6H2
   27    29     1     0     0
SMALL
abcg2


@<TRIPOS>ATOM
      1 C2           0.9760    -0.3760     0.0940 ca         1 6H2      -0.019800
      2 C3           1.7530     0.7820     0.1660 ca         1 6H2      -0.127000
      3 C4           3.1330     0.7120     0.2040 ca         1 6H2       0.038100
      4 C5           3.7760    -0.5340     0.1720 ca         1 6H2       0.126100
      5 C6           3.0050    -1.6840     0.0990 ca         1 6H2      -0.128000
      6 C7           1.6210    -1.6090     0.0600 ca         1 6H2      -0.095000
      7 O8           5.1200    -0.6420     0.2090 oh         1 6H2      -0.535100
      8 O9           3.9410     1.7950     0.2740 oh         1 6H2      -0.561100
      9 C10         -0.4820    -0.2710     0.0550 cc         1 6H2       0.133400
     10 N11         -1.1070     0.9350     0.0770 nc         1 6H2      -0.297600
     11 C12         -2.3990     0.6760     0.0330 cd         1 6H2      -0.075000
     12 N13         -2.6240    -0.6900    -0.0180 na         1 6H2       0.135100
     13 C14         -1.3990    -1.2970    -0.0030 cd         1 6H2      -0.273100
     14 C15         -3.5120     1.5420     0.0300 cd         1 6H2      -0.073000
     15 C16         -4.7670     1.0100    -0.0220 cc         1 6H2      -0.105000
     16 C17         -4.9510    -0.3960    -0.0730 cc         1 6H2      -0.142000
     17 C18         -3.8770    -1.2250    -0.0700 cd         1 6H2      -0.110000
     18 H1           1.2660     1.7500     0.1930 ha         1 6H2       0.136000
     19 H2           3.4990    -2.6480     0.0730 ha         1 6H2       0.130000
     20 H3           1.0520    -2.5280     0.0010 ha         1 6H2       0.113000
     21 H4           5.5290     0.2280     0.2850 ho         1 6H2       0.482000
     22 H5           3.4240     2.6080     0.2960 ho         1 6H2       0.476000
     23 H6          -1.2970    -2.3680    -0.0350 h4         1 6H2       0.232000
     24 H7          -3.3420     2.6080     0.0680 ha         1 6H2       0.142000
     25 H8          -5.6310     1.6600    -0.0260 ha         1 6H2       0.124000
     26 H9          -5.9430    -0.8210    -0.1150 ha         1 6H2       0.131000
     27 H10         -3.9450    -2.3020    -0.1060 h4         1 6H2       0.144000
@<TRIPOS>BOND
     1     1     2 ar  
     2     1     6 ar  
     3     1     9 1   
     4     2     3 ar  
     5     2    18 1   
     6     3     4 ar  
     7     3     8 1   
     8     4     5 ar  
     9     4     7 1   
    10     5     6 ar  
    11     5    19 1   
    12     6    20 1   
    13     7    21 1   
    14     8    22 1   
    15     9    10 1   
    16     9    13 2   
    17    10    11 2   
    18    11    12 1   
    19    11    14 1   
    20    12    13 1   
    21    12    17 1   
    22    13    23 1   
    23    14    15 2   
    24    14    24 1   
    25    15    16 1   
    26    15    25 1   
    27    16    17 2   
    28    16    26 1   
    29    17    27 1   
@<TRIPOS>SUBSTRUCTURE
     1 6H2         1 TEMP              0 ****  ****    0 ROOT
