@<TRIPOS>MOLECULE
6H2
   27    29     1     0     0
SMALL
No Charge or Current Charge


@<TRIPOS>ATOM
      1 C2           0.9610    -0.3310     0.0810 ca         1 6H2      -0.019800
      2 C3           1.7880     0.8020     0.2700 ca         1 6H2      -0.127000
      3 C4           3.1880     0.6720     0.2980 ca         1 6H2       0.038100
      4 C5           3.7780    -0.5950     0.1240 ca         1 6H2       0.126100
      5 C6           2.9730    -1.7230    -0.0800 ca         1 6H2      -0.128000
      6 C7           1.5730    -1.5930    -0.1070 ca         1 6H2      -0.095000
      7 O8           5.1360    -0.7120     0.1510 oh         1 6H2      -0.535100
      8 O9           3.9820     1.7740     0.4900 oh         1 6H2      -0.561100
      9 C10         -0.5030    -0.1730     0.0290 cc         1 6H2       0.133400
     10 N11         -1.1550     1.0380    -0.0900 nc         1 6H2      -0.297600
     11 C12         -2.4380     0.7250    -0.0780 cd         1 6H2      -0.075000
     12 N13         -2.5760    -0.6320     0.0460 na         1 6H2       0.135100
     13 C14         -1.3580    -1.2530     0.1260 cd         1 6H2      -0.273100
     14 C15         -3.5600     1.6010    -0.1710 cd         1 6H2      -0.073000
     15 C16         -4.7960     0.9890    -0.1240 cc         1 6H2      -0.105000
     16 C17         -4.9060    -0.4460     0.0140 cc         1 6H2      -0.142000
     17 C18         -3.8040    -1.2920     0.1060 cd         1 6H2      -0.110000
     18 H1           1.3370     1.7820     0.4030 ha         1 6H2       0.136000
     19 H2           3.4320    -2.6990    -0.2230 ha         1 6H2       0.130000
     20 H3           0.9720    -2.4810    -0.2830 ha         1 6H2       0.113000
     21 H4           5.4800     0.1980     0.3010 ho         1 6H2       0.482000
     22 H5           3.4110     2.5690     0.5910 ho         1 6H2       0.476000
     23 H6          -1.2120    -2.3190     0.2450 h4         1 6H2       0.232000
     24 H7          -3.4510     2.6760    -0.2700 ha         1 6H2       0.142000
     25 H8          -5.7050     1.5800    -0.1880 ha         1 6H2       0.124000
     26 H9          -5.9050    -0.8720     0.0490 ha         1 6H2       0.131000
     27 H10         -3.8220    -2.3700     0.2120 h4         1 6H2       0.144000
@<TRIPOS>BOND
     1     1     2 ar  
     2     1     6 ar  
     3     1     9 1   
     4     2     3 ar  
     5     2    18 1   
     6     3     4 ar  
     7     3     8 1   
     8     4     5 ar  
     9     4     7 1   
    10     5     6 ar  
    11     5    19 1   
    12     6    20 1   
    13     7    21 1   
    14     8    22 1   
    15     9    10 1   
    16     9    13 2   
    17    10    11 2   
    18    11    12 1   
    19    11    14 1   
    20    12    13 1   
    21    12    17 1   
    22    13    23 1   
    23    14    15 2   
    24    14    24 1   
    25    15    16 1   
    26    15    25 1   
    27    16    17 2   
    28    16    26 1   
    29    17    27 1   
@<TRIPOS>SUBSTRUCTURE
     1 6H2         1 TEMP              0 ****  ****    0 ROOT
