@<TRIPOS>MOLECULE
6H3
   61    64     1     0     0
SMALL
bcc


@<TRIPOS>ATOM
      1 C18          2.2310     1.9670    -0.1510 ca         1 6H3      -0.349200
      2 C13         -2.2820    -0.3550    -0.0720 ca         1 6H3       0.141600
      3 C12         -2.9290     0.8240    -0.4490 ca         1 6H3      -0.136500
      4 C17          0.9480     2.4380    -0.2470 ca         1 6H3       0.517200
      5 C15          0.1250     0.3500    -0.0730 ca         1 6H3       0.956900
      6 C11         -4.3120     0.8820    -0.4890 ca         1 6H3      -0.150000
      7 C10         -3.0760    -1.4530     0.2540 ca         1 6H3      -0.136500
      8 C22          4.0630    -1.2770     0.1700 ca         1 6H3       0.165600
      9 C20          2.3960     0.5680    -0.0120 ca         1 6H3       0.773200
     10 N02         -9.3180    -0.0140     0.2840 n3         1 6H3      -0.715600
     11 C03         -8.5640     1.1970     0.0360 c6         1 6H3       0.158300
     12 C04         -7.1180     1.0260     0.4550 c6         1 6H3       0.192800
     13 C05         -8.7220    -1.1180    -0.4370 c6         1 6H3       0.158300
     14 C06         -7.2770    -1.3230    -0.0210 c6         1 6H3       0.192800
     15 N07         -6.5130    -0.1100    -0.2270 nh         1 6H3      -0.640000
     16 C08         -5.1190    -0.2100    -0.1510 ca         1 6H3       0.126600
     17 C09         -4.4600    -1.3850     0.2230 ca         1 6H3      -0.150000
     18 N14         -0.8990    -0.5370    -0.0190 nu         1 6H3      -0.726300
     19 N16         -0.1210     1.6470    -0.2110 nb         1 6H3      -0.785000
     20 CL19         3.5860     3.0360    -0.2130 cl         1 6H3      -0.095400
     21 N21          3.6410     0.0470     0.0700 nu         1 6H3      -0.735300
     22 C23          3.2810    -2.3240     0.6570 ca         1 6H3      -0.137000
     23 C24          3.8170    -3.5980     0.7630 ca         1 6H3      -0.106000
     24 C25          5.1290    -3.8560     0.3920 ca         1 6H3      -0.143000
     25 C26          5.9090    -2.8200    -0.0980 ca         1 6H3      -0.094000
     26 C27          5.3890    -1.5410    -0.2140 ca         1 6H3      -0.005400
     27 N28          6.1750    -0.4830    -0.7270 ns         1 6H3      -0.518100
     28 C29          7.2960    -0.0120    -0.1120 c          1 6H3       0.665100
     29 C30          8.0140     1.0680    -0.8920 c3         1 6H3      -0.159400
     30 C31          9.2450     1.6100    -0.1910 c3         1 6H3      -0.076100
     31 O32          7.6640    -0.4180     0.9730 o          1 6H3      -0.567100
     32 N33          1.3350    -0.2130     0.0250 nb         1 6H3      -0.848000
     33 H1          -2.3610     1.6980    -0.7210 ha         1 6H3       0.146000
     34 H2           0.7670     3.5020    -0.3570 h4         1 6H3       0.033100
     35 H3          -4.7660     1.8090    -0.8150 ha         1 6H3       0.133500
     36 H4          -2.6080    -2.3830     0.5560 ha         1 6H3       0.146000
     37 H5         -10.8910     0.3900    -1.1010 h1         1 6H3       0.031033
     38 H6         -11.2630    -0.7650     0.1900 h1         1 6H3       0.031033
     39 H7         -11.1450     0.9560     0.5570 h1         1 6H3       0.031033
     40 H9          -8.6010     1.4910    -1.0270 h1         1 6H3       0.039450
     41 H10         -9.0010     2.0180     0.6110 h1         1 6H3       0.039450
     42 H11         -6.5820     1.9420     0.2090 h1         1 6H3       0.043700
     43 H12         -7.0640     0.8990     1.5470 h1         1 6H3       0.043700
     44 H13         -9.2790    -2.0330    -0.2180 h1         1 6H3       0.039450
     45 H14         -8.7660    -0.9650    -1.5300 h1         1 6H3       0.039450
     46 H15         -7.2470    -1.6550     1.0280 h1         1 6H3       0.043700
     47 H16         -6.8570    -2.1260    -0.6290 h1         1 6H3       0.043700
     48 H17         -5.0130    -2.2680     0.5100 ha         1 6H3       0.133500
     49 H18         -0.5960    -1.4860     0.1360 hn         1 6H3       0.452800
     50 H19          4.3950     0.7070    -0.0470 hn         1 6H3       0.461800
     51 H20          2.2620    -2.1440     0.9570 ha         1 6H3       0.161000
     52 H21          3.1960    -4.3980     1.1460 ha         1 6H3       0.133000
     53 H22          5.5390    -4.8530     0.4750 ha         1 6H3       0.137000
     54 H23          6.9280    -3.0040    -0.4110 ha         1 6H3       0.141000
     55 H24          5.9720    -0.1560    -1.6610 hn         1 6H3       0.319500
     56 H25          8.2790     0.6610    -1.8730 hc         1 6H3       0.055700
     57 H26          7.3030     1.8750    -1.0930 hc         1 6H3       0.055700
     58 H27          9.9890     0.8320    -0.0240 hc         1 6H3       0.044700
     59 H28          9.7070     2.3840    -0.8030 hc         1 6H3       0.044700
     60 H29          8.9980     2.0530     0.7730 hc         1 6H3       0.044700
     61 C01        -10.7160     0.1500    -0.0400 c3         1 6H3       0.153100
@<TRIPOS>BOND
     1     1     4 ar  
     2     1     9 ar  
     3     1    20 1   
     4     2     3 ar  
     5     2     7 ar  
     6     2    18 1   
     7     3     6 ar  
     8     3    33 1   
     9     4    19 ar  
    10     4    34 1   
    11     5    18 1   
    12     5    19 ar  
    13     5    32 ar  
    14     6    16 ar  
    15     6    35 1   
    16     7    17 ar  
    17     7    36 1   
    18     8    21 1   
    19     8    22 ar  
    20     8    26 ar  
    21     9    21 1   
    22     9    32 ar  
    23    10    11 1   
    24    10    13 1   
    25    10    61 1   
    26    11    12 1   
    27    11    40 1   
    28    11    41 1   
    29    12    15 1   
    30    12    42 1   
    31    12    43 1   
    32    13    14 1   
    33    13    44 1   
    34    13    45 1   
    35    14    15 1   
    36    14    46 1   
    37    14    47 1   
    38    15    16 1   
    39    16    17 ar  
    40    17    48 1   
    41    18    49 1   
    42    21    50 1   
    43    22    23 ar  
    44    22    51 1   
    45    23    24 ar  
    46    23    52 1   
    47    24    25 ar  
    48    24    53 1   
    49    25    26 ar  
    50    25    54 1   
    51    26    27 1   
    52    27    28 1   
    53    27    55 1   
    54    28    29 1   
    55    28    31 2   
    56    29    30 1   
    57    29    56 1   
    58    29    57 1   
    59    30    58 1   
    60    30    59 1   
    61    30    60 1   
    62    37    61 1   
    63    38    61 1   
    64    39    61 1   
@<TRIPOS>SUBSTRUCTURE
     1 6H3         1 TEMP              0 ****  ****    0 ROOT
