@<TRIPOS>MOLECULE
6H3
   61    64     1     0     0
SMALL
No Charge or Current Charge


@<TRIPOS>ATOM
      1 C18          2.3510     1.9360     0.9540 ca         1 6H3      -0.127000
      2 C13         -2.2050    -0.4190     0.3200 ca         1 6H3       0.280000
      3 C12         -2.8000     0.7370    -0.2210 ca         1 6H3      -0.118500
      4 C17          1.0400     2.4370     0.9790 ca         1 6H3       0.188900
      5 C15          0.2390     0.3220     0.6250 ca         1 6H3       0.430900
      6 C11         -4.1990     0.8250    -0.3570 ca         1 6H3      -0.132000
      7 C10         -3.0320    -1.4920     0.6960 ca         1 6H3      -0.118500
      8 C22          4.2590    -1.3290     0.6300 ca         1 6H3       0.304000
      9 C20          2.5040     0.5500     0.7640 ca         1 6H3       0.444900
     10 N02         -9.4110     0.0780    -0.2610 n3         1 6H3      -0.715600
     11 C03         -8.5460     1.2950    -0.2040 c6         1 6H3       0.158300
     12 C04         -7.1680     1.0300     0.4880 c6         1 6H3       0.192800
     13 C05         -8.6730    -1.0350    -0.9340 c6         1 6H3       0.158300
     14 C06         -7.2980    -1.3490    -0.2570 c6         1 6H3       0.192800
     15 N07         -6.4350    -0.1320    -0.1100 nh         1 6H3      -0.778400
     16 C08         -5.0310    -0.2410     0.0360 ca         1 6H3       0.265000
     17 C09         -4.4310    -1.4050     0.5600 ca         1 6H3      -0.132000
     18 N14         -0.8190    -0.5580     0.4630 nu         1 6H3      -0.919900
     19 N16         -0.0240     1.6270     0.8180 nb         1 6H3      -0.259000
     20 Cl19         3.7350     3.0190     1.1520 cl         1 6H3      -0.187000
     21 N21          3.7740    -0.0160     0.7060 nu         1 6H3      -0.928900
     22 C23          3.5970    -2.3800     1.2940 ca         1 6H3      -0.119000
     23 C24          4.1040    -3.6890     1.2500 ca         1 6H3      -0.088000
     24 C25          5.2830    -3.9550     0.5410 ca         1 6H3      -0.125000
     25 C26          5.9600    -2.9160    -0.1180 ca         1 6H3      -0.076000
     26 C27          5.4630    -1.5940    -0.0730 ca         1 6H3      -0.098000
     27 N28          6.1200    -0.5320    -0.7670 ns         1 6H3      -0.192000
     28 C29          7.4370    -0.3770    -1.1790 c          1 6H3       0.598100
     29 C30          7.6980     0.8970    -1.9960 c3         1 6H3      -0.159400
     30 C31          8.4620     1.9580    -1.1740 c3         1 6H3      -0.076100
     31 O32          8.3310    -1.1770    -0.9320 o          1 6H3      -0.567100
     32 N33          1.4460    -0.2580     0.5910 nb         1 6H3      -0.322000
     33 H1          -2.1890     1.5670    -0.5600 ha         1 6H3       0.128000
     34 H2           0.8370     3.4970     1.1270 h4         1 6H3       0.033100
     35 H3          -4.6360     1.7210    -0.7880 ha         1 6H3       0.115500
     36 H4          -2.5930    -2.3970     1.1070 ha         1 6H3       0.128000
     37 H5         -10.6170     0.6630    -1.9210 h1         1 6H3       0.031033
     38 H6         -11.3530    -0.5610    -0.8590 h1         1 6H3       0.031033
     39 H7         -11.2610     1.1320    -0.3290 h1         1 6H3       0.031033
     40 H9          -8.3550     1.6680    -1.2220 h1         1 6H3       0.039450
     41 H10         -9.0590     2.1020     0.3390 h1         1 6H3       0.039450
     42 H11         -6.5680     1.9490     0.4210 h1         1 6H3       0.043700
     43 H12         -7.3450     0.8400     1.5570 h1         1 6H3       0.043700
     44 H13         -9.2810    -1.9520    -0.9300 h1         1 6H3       0.039450
     45 H14         -8.4890    -0.7790    -1.9880 h1         1 6H3       0.039450
     46 H15         -7.4870    -1.7910     0.7320 h1         1 6H3       0.043700
     47 H16         -6.7840    -2.1090    -0.8640 h1         1 6H3       0.043700
     48 H17         -5.0420    -2.2440     0.8770 ha         1 6H3       0.115500
     49 H18         -0.5100    -1.5270     0.5330 hn         1 6H3       0.508000
     50 H19          4.5030     0.6940     0.6880 hn         1 6H3       0.517000
     51 H20          2.6960    -2.1820     1.8660 ha         1 6H3       0.143000
     52 H21          3.5840    -4.4930     1.7670 ha         1 6H3       0.115000
     53 H22          5.6740    -4.9700     0.4990 ha         1 6H3       0.119000
     54 H23          6.8600    -3.1580    -0.6760 ha         1 6H3       0.123000
     55 H24          5.5070     0.2240    -1.0410 hn         1 6H3       0.153000
     56 H25          8.3070     0.6360    -2.8700 hc         1 6H3       0.055700
     57 H26          6.7480     1.3360    -2.3250 hc         1 6H3       0.055700
     58 H27          9.4340     1.5710    -0.8440 hc         1 6H3       0.044700
     59 H28          8.6390     2.8560    -1.7780 hc         1 6H3       0.044700
     60 H29          7.8880     2.2500    -0.2860 hc         1 6H3       0.044700
     61 C01        -10.7290     0.3420    -0.8760 c3         1 6H3       0.153100
@<TRIPOS>BOND
     1     1     4 ar  
     2     1     9 ar  
     3     1    20 1   
     4     2     3 ar  
     5     2     7 ar  
     6     2    18 1   
     7     3     6 ar  
     8     3    33 1   
     9     4    19 ar  
    10     4    34 1   
    11     5    18 1   
    12     5    19 ar  
    13     5    32 ar  
    14     6    16 ar  
    15     6    35 1   
    16     7    17 ar  
    17     7    36 1   
    18     8    21 1   
    19     8    22 ar  
    20     8    26 ar  
    21     9    21 1   
    22     9    32 ar  
    23    10    11 1   
    24    10    13 1   
    25    10    61 1   
    26    11    12 1   
    27    11    40 1   
    28    11    41 1   
    29    12    15 1   
    30    12    42 1   
    31    12    43 1   
    32    13    14 1   
    33    13    44 1   
    34    13    45 1   
    35    14    15 1   
    36    14    46 1   
    37    14    47 1   
    38    15    16 1   
    39    16    17 ar  
    40    17    48 1   
    41    18    49 1   
    42    21    50 1   
    43    22    23 ar  
    44    22    51 1   
    45    23    24 ar  
    46    23    52 1   
    47    24    25 ar  
    48    24    53 1   
    49    25    26 ar  
    50    25    54 1   
    51    26    27 1   
    52    27    28 1   
    53    27    55 1   
    54    28    29 1   
    55    28    31 2   
    56    29    30 1   
    57    29    56 1   
    58    29    57 1   
    59    30    58 1   
    60    30    59 1   
    61    30    60 1   
    62    37    61 1   
    63    38    61 1   
    64    39    61 1   
@<TRIPOS>SUBSTRUCTURE
     1 6H3         1 TEMP              0 ****  ****    0 ROOT
