@<TRIPOS>MOLECULE
6H4
   58    61     1     0     0
SMALL
No Charge or Current Charge


@<TRIPOS>ATOM
      1 C10         -2.1750     1.1210    -0.8810 ca         1 6H4      -0.115500
      2 C11         -3.7110    -1.0930    -0.1160 ca         1 6H4      -0.135500
      3 C12         -2.3060    -1.1870    -0.1630 ca         1 6H4      -0.115500
      4 C13         -1.5250    -0.0750    -0.5340 ca         1 6H4       0.271000
      5 C15          0.8550    -0.8790     0.0170 ca         1 6H4       0.423900
      6 C17          1.5030    -2.3920     1.6060 ca         1 6H4       0.177900
      7 C18          2.8340    -2.2620     1.1780 ca         1 6H4      -0.089000
      8 C20          3.0900    -1.3720     0.1160 ca         1 6H4       0.399300
      9 N02         -8.7520     0.4250    -0.1430 n3         1 6H4      -0.711600
     10 C03         -8.1100    -0.6000    -1.0250 c6         1 6H4       0.158300
     11 C04         -6.6570    -0.9750    -0.5790 c6         1 6H4       0.158300
     12 C05         -7.8800     1.6390    -0.0920 c6         1 6H4       0.158300
     13 C06         -6.4190     1.3310     0.3810 c6         1 6H4       0.158300
     14 N07         -5.7740     0.2260    -0.4040 nh         1 6H4      -0.777400
     15 C08         -4.3630     0.1130    -0.4440 ca         1 6H4       0.266000
     16 C09         -3.5790     1.2170    -0.8320 ca         1 6H4      -0.135500
     17 N14         -0.1270    -0.1280    -0.6080 nu         1 6H4      -0.910900
     18 N16          0.5070    -1.6960     1.0260 nb         1 6H4      -0.252000
     19 Cl19         4.1220    -3.1790     1.9650 cl         1 6H4      -0.156000
     20 O21          4.3900    -1.2180    -0.3220 os         1 6H4      -0.350400
     21 C22          4.7660    -0.1870    -1.1530 ca         1 6H4       0.084100
     22 C23          5.0010    -0.4630    -2.5100 ca         1 6H4      -0.095000
     23 C24          5.3830     0.5690    -3.3820 ca         1 6H4      -0.105000
     24 C25          5.5360     1.8760    -2.8900 ca         1 6H4      -0.100000
     25 C26          5.3100     2.1540    -1.5300 ca         1 6H4      -0.087000
     26 C27          4.9190     1.1230    -0.6450 ca         1 6H4      -0.040000
     27 N28          4.6940     1.3400     0.7450 ns         1 6H4      -0.160000
     28 C29          4.5550     2.4940     1.5000 c          1 6H4       0.614300
     29 C30          4.3460     2.2340     2.9580 ce         1 6H4      -0.310200
     30 C31          4.0580     3.1920     3.8750 c2         1 6H4      -0.224000
     31 O32          4.5650     3.6290     1.0390 o          1 6H4      -0.591100
     32 N33          2.0890    -0.6770    -0.4640 nb         1 6H4      -0.312000
     33 H1          -1.5930     1.9880    -1.1840 ha         1 6H4       0.132000
     34 H2          -4.2850    -1.9640     0.1830 ha         1 6H4       0.115500
     35 H3          -1.8380    -2.1360     0.0750 ha         1 6H4       0.132000
     36 H4           1.2300    -3.0570     2.4240 h4         1 6H4       0.036100
     37 H5          -8.2290    -0.4210     1.7570 h1         1 6H4       0.031033
     38 H6          -9.6260     0.6770     1.7850 h1         1 6H4       0.031033
     39 H7          -9.7940    -0.9540     1.1050 h1         1 6H4       0.031033
     40 H9          -8.7190    -1.5150    -1.0630 h1         1 6H4       0.060200
     41 H10         -8.0590    -0.2180    -2.0560 h1         1 6H4       0.060200
     42 H11         -6.7070    -1.5390     0.3640 h1         1 6H4       0.040200
     43 H12         -6.2310    -1.6470    -1.3380 h1         1 6H4       0.040200
     44 H13         -7.8220     2.0940    -1.0920 h1         1 6H4       0.060200
     45 H14         -8.3160     2.4020     0.5700 h1         1 6H4       0.060200
     46 H15         -5.8340     2.2580     0.3000 h1         1 6H4       0.040200
     47 H16         -6.4380     1.0600     1.4460 h1         1 6H4       0.040200
     48 H17         -4.0580     2.1500    -1.1110 ha         1 6H4       0.115500
     49 H18          0.2800     0.5950    -1.2020 hn         1 6H4       0.526000
     50 H19          4.8820    -1.4770    -2.8850 ha         1 6H4       0.131000
     51 H20          5.5620     0.3570    -4.4340 ha         1 6H4       0.120000
     52 H21          5.8380     2.6750    -3.5640 ha         1 6H4       0.120000
     53 H22          5.4570     3.1720    -1.1820 ha         1 6H4       0.131000
     54 H23          4.6270     0.4850     1.2810 hn         1 6H4       0.161000
     55 H24          4.4100     1.1900     3.2650 ha         1 6H4       0.181000
     56 H26          3.9710     4.2460     3.6040 ha         1 6H4       0.177500
     57 H27          3.8990     2.9500     4.9270 ha         1 6H4       0.177500
     58 C01         -9.1150    -0.0960     1.1960 c3         1 6H4       0.150100
@<TRIPOS>BOND
     1     1     4 ar  
     2     1    16 ar  
     3     1    33 1   
     4     2     3 ar  
     5     2    15 ar  
     6     2    34 1   
     7     3     4 ar  
     8     3    35 1   
     9     4    17 1   
    10     5    17 1   
    11     5    18 ar  
    12     5    32 ar  
    13     6     7 ar  
    14     6    18 ar  
    15     6    36 1   
    16     7     8 ar  
    17     7    19 1   
    18     8    20 1   
    19     8    32 ar  
    20     9    10 1   
    21     9    12 1   
    22     9    58 1   
    23    10    11 1   
    24    10    40 1   
    25    10    41 1   
    26    11    14 1   
    27    11    42 1   
    28    11    43 1   
    29    12    13 1   
    30    12    44 1   
    31    12    45 1   
    32    13    14 1   
    33    13    46 1   
    34    13    47 1   
    35    14    15 1   
    36    15    16 ar  
    37    16    48 1   
    38    17    49 1   
    39    20    21 1   
    40    21    22 ar  
    41    21    26 ar  
    42    22    23 ar  
    43    22    50 1   
    44    23    24 ar  
    45    23    51 1   
    46    24    25 ar  
    47    24    52 1   
    48    25    26 ar  
    49    25    53 1   
    50    26    27 1   
    51    27    28 1   
    52    27    54 1   
    53    28    29 1   
    54    28    31 2   
    55    29    30 2   
    56    29    55 1   
    57    30    56 1   
    58    30    57 1   
    59    37    58 1   
    60    38    58 1   
    61    39    58 1   
@<TRIPOS>SUBSTRUCTURE
     1 6H4         1 TEMP              0 ****  ****    0 ROOT
