@<TRIPOS>MOLECULE
6H4
   58    61     1     0     0
SMALL
abcg2


@<TRIPOS>ATOM
      1 C10         -1.7710     1.1190    -0.9250 ca         1 6H4      -0.115500
      2 C11         -3.3670    -0.9520    -0.0780 ca         1 6H4      -0.135500
      3 C12         -1.9950    -1.1450    -0.2000 ca         1 6H4      -0.115500
      4 C13         -1.1700    -0.1060    -0.6180 ca         1 6H4       0.271000
      5 C15          1.1130    -1.0710    -0.3000 ca         1 6H4       0.423900
      6 C17          1.6820    -2.9020     0.8890 ca         1 6H4       0.177900
      7 C18          3.0220    -2.6470     0.6970 ca         1 6H4      -0.089000
      8 C20          3.3200    -1.5190    -0.0760 ca         1 6H4       0.399300
      9 N02         -8.1410     0.8010     0.4250 n3         1 6H4      -0.711600
     10 C03         -7.6530    -0.3700    -0.2780 c6         1 6H4       0.158300
     11 C04         -6.1840    -0.6880    -0.0150 c6         1 6H4       0.158300
     12 C05         -7.2770     1.9260     0.1230 c6         1 6H4       0.158300
     13 C06         -5.8030     1.6630     0.4000 c6         1 6H4       0.158300
     14 N07         -5.3580     0.4680    -0.3120 nh         1 6H4      -0.777400
     15 C08         -3.9770     0.2660    -0.3870 ca         1 6H4       0.266000
     16 C09         -3.1340     1.2990    -0.8210 ca         1 6H4      -0.135500
     17 N14          0.2140    -0.1890    -0.7900 nu         1 6H4      -0.910900
     18 N16          0.7210    -2.1250     0.4060 nb         1 6H4      -0.252000
     19 CL19         4.2550    -3.6430     1.3580 cl         1 6H4      -0.156000
     20 O21          4.6060    -1.2240    -0.2770 os         1 6H4      -0.350400
     21 C22          4.9460    -0.0840    -0.9780 ca         1 6H4       0.084100
     22 C23          5.6240    -0.2400    -2.1730 ca         1 6H4      -0.095000
     23 C24          6.0330     0.8830    -2.8770 ca         1 6H4      -0.105000
     24 C25          5.7630     2.1500    -2.3810 ca         1 6H4      -0.100000
     25 C26          5.0960     2.2970    -1.1730 ca         1 6H4      -0.087000
     26 C27          4.6830     1.1820    -0.4550 ca         1 6H4      -0.040000
     27 N28          3.9970     1.3110     0.7650 ns         1 6H4      -0.160000
     28 C29          2.7440     1.8380     0.8420 c          1 6H4       0.614300
     29 C30          2.0780     1.6070     2.1470 ce         1 6H4      -0.310200
     30 C31          0.7840     1.8560     2.3110 c2         1 6H4      -0.224000
     31 O32          2.2140     2.4270    -0.0830 o          1 6H4      -0.591100
     32 N33          2.3870    -0.7690    -0.5860 nb         1 6H4      -0.312000
     33 H1          -1.1600     1.9470    -1.2670 ha         1 6H4       0.132000
     34 H2          -3.9530    -1.7900     0.2720 ha         1 6H4       0.115500
     35 H3          -1.5810    -2.1070     0.0530 ha         1 6H4       0.132000
     36 H4           1.3720    -3.7680     1.4640 h4         1 6H4       0.036100
     37 H5          -7.4440     0.2980     2.4100 h1         1 6H4       0.031033
     38 H6          -8.7310     1.4970     2.2990 h1         1 6H4       0.031033
     39 H7          -9.0830    -0.2000     1.9930 h1         1 6H4       0.031033
     40 H9          -8.2610    -1.2370    -0.0090 h1         1 6H4       0.060200
     41 H10         -7.7850    -0.2030    -1.3520 h1         1 6H4       0.060200
     42 H11         -6.0470    -1.0330     1.0220 h1         1 6H4       0.040200
     43 H12         -5.8950    -1.5160    -0.6660 h1         1 6H4       0.040200
     44 H13         -7.3930     2.1720    -0.9380 h1         1 6H4       0.060200
     45 H14         -7.6030     2.7990     0.6930 h1         1 6H4       0.060200
     46 H15         -5.2350     2.5300     0.0710 h1         1 6H4       0.040200
     47 H16         -5.6280     1.5570     1.4810 h1         1 6H4       0.040200
     48 H17         -3.5430     2.2610    -1.1010 ha         1 6H4       0.115500
     49 H18          0.6450     0.6230    -1.2080 hn         1 6H4       0.526000
     50 H19          5.8240    -1.2350    -2.5500 ha         1 6H4       0.131000
     51 H20          6.5610     0.7640    -3.8140 ha         1 6H4       0.120000
     52 H21          6.0780     3.0290    -2.9270 ha         1 6H4       0.120000
     53 H22          4.9050     3.2830    -0.7720 ha         1 6H4       0.131000
     54 H23          4.3480     0.7960     1.5590 hn         1 6H4       0.161000
     55 H24          2.6650     1.1900     2.9580 ha         1 6H4       0.181000
     56 H26          0.1750     2.2570     1.5110 ha         1 6H4       0.177500
     57 H27          0.2910     1.6590     3.2530 ha         1 6H4       0.177500
     58 C01         -8.3400     0.5850     1.8450 c3         1 6H4       0.150100
@<TRIPOS>BOND
     1     1     4 ar  
     2     1    16 ar  
     3     1    33 1   
     4     2     3 ar  
     5     2    15 ar  
     6     2    34 1   
     7     3     4 ar  
     8     3    35 1   
     9     4    17 1   
    10     5    17 1   
    11     5    18 ar  
    12     5    32 ar  
    13     6     7 ar  
    14     6    18 ar  
    15     6    36 1   
    16     7     8 ar  
    17     7    19 1   
    18     8    20 1   
    19     8    32 ar  
    20     9    10 1   
    21     9    12 1   
    22     9    58 1   
    23    10    11 1   
    24    10    40 1   
    25    10    41 1   
    26    11    14 1   
    27    11    42 1   
    28    11    43 1   
    29    12    13 1   
    30    12    44 1   
    31    12    45 1   
    32    13    14 1   
    33    13    46 1   
    34    13    47 1   
    35    14    15 1   
    36    15    16 ar  
    37    16    48 1   
    38    17    49 1   
    39    20    21 1   
    40    21    22 ar  
    41    21    26 ar  
    42    22    23 ar  
    43    22    50 1   
    44    23    24 ar  
    45    23    51 1   
    46    24    25 ar  
    47    24    52 1   
    48    25    26 ar  
    49    25    53 1   
    50    26    27 1   
    51    27    28 1   
    52    27    54 1   
    53    28    29 1   
    54    28    31 2   
    55    29    30 2   
    56    29    55 1   
    57    30    56 1   
    58    30    57 1   
    59    37    58 1   
    60    38    58 1   
    61    39    58 1   
@<TRIPOS>SUBSTRUCTURE
     1 6H4         1 TEMP              0 ****  ****    0 ROOT
