@<TRIPOS>MOLECULE
6H5
   74    77     1     0     0
SMALL
bcc


@<TRIPOS>ATOM
      1 N1           1.1890    -0.1460     1.4900 ns         1 6H5      -0.526400
      2 C3           5.8240     1.3190     0.0730 ca         1 6H5      -0.001300
      3 N2          -0.2390    -1.1640     3.0240 n2         1 6H5      -0.842100
      4 C4           4.6070     1.2840    -0.6040 ca         1 6H5      -0.135000
      5 C9          -2.3600    -0.9150     1.0100 c3         1 6H5       0.286100
      6 C8          -0.0640    -0.6560     1.8710 c2         1 6H5       0.687800
      7 C7           2.4160    -0.6240     1.8500 c          1 6H5       0.703700
      8 C6           3.5670     0.0760     1.2060 ca         1 6H5      -0.188600
      9 C5           3.4910     0.6780    -0.0490 ca         1 6H5      -0.098000
     10 C10         -3.0090    -1.0810    -0.3350 ca         1 6H5      -0.141300
     11 C12         -4.0790     2.2650    -0.4830 ca         1 6H5       0.156100
     12 C13         -5.4120     2.0300    -0.1920 ca         1 6H5      -0.215000
     13 C14         -6.3090     3.0990    -0.1680 ca         1 6H5       0.159100
     14 C16         -5.8590     4.3940    -0.4220 ca         1 6H5      -0.236000
     15 C17         -4.5140     4.5990    -0.7000 ca         1 6H5      -0.072000
     16 C20         -4.3780    -1.3130    -2.7520 ca         1 6H5      -0.080000
     17 C22         -3.2220    -2.3550    -0.9010 ca         1 6H5       0.174600
     18 C23         -1.3140    -3.6810    -0.2130 c6         1 6H5       0.191800
     19 C24         -0.9050    -4.6530     0.8800 c6         1 6H5      -0.079400
     20 C28          4.7870     0.0900     1.8810 ca         1 6H5      -0.098000
     21 C26         -3.1320    -5.7570     0.6080 c6         1 6H5      -0.079400
     22 C25         -1.6290    -5.9830     0.7110 c6         1 6H5      -0.075400
     23 C18         -3.6120     3.5490    -0.7410 ca         1 6H5      -0.176000
     24 C            8.9040     1.7940    -2.2150 c          1 6H5       0.902600
     25 O            8.4600     2.6260    -3.0340 o          1 6H5      -0.835300
     26 C1           7.8380     0.9930    -1.4210 c3         1 6H5       0.017500
     27 N            8.3430    -0.0930    -0.6020 n8         1 6H5      -0.887800
     28 C29          5.8930     0.7090     1.3250 ca         1 6H5      -0.135000
     29 O3           2.5900    -1.5420     2.6230 o          1 6H5      -0.555100
     30 N3          -0.9830    -0.4740     0.8840 nu         1 6H5      -0.926200
     31 N4          -2.7640    -3.4940    -0.2250 nh         1 6H5      -0.654000
     32 C27         -3.4660    -4.7420    -0.4760 c6         1 6H5       0.191800
     33 C21         -3.9240    -2.4510    -2.1040 ca         1 6H5      -0.201000
     34 C19         -4.1370    -0.0540    -2.2320 ca         1 6H5      -0.198000
     35 C11         -3.4560     0.0420    -1.0240 ca         1 6H5       0.146100
     36 O1          -3.1560     1.2570    -0.4740 os         1 6H5      -0.250200
     37 O2          -7.5850     2.7820     0.1170 os         1 6H5      -0.318900
     38 H1           1.1660     0.6600     0.8860 hn         1 6H5       0.323500
     39 H2          -1.1820    -1.5200     3.1350 hn         1 6H5       0.378400
     40 H3           4.5270     1.7400    -1.5840 ha         1 6H5       0.138000
     41 H4          -2.9280    -0.2020     1.6150 h1         1 6H5       0.054700
     42 H5          -2.4040    -1.8770     1.5270 h1         1 6H5       0.054700
     43 H6           2.5750     0.6640    -0.6270 ha         1 6H5       0.123500
     44 H7          -5.7710     1.0300     0.0190 ha         1 6H5       0.158000
     45 H8          -9.5030     3.3430     0.3630 h1         1 6H5       0.039700
     46 H9          -8.3360     4.5650     0.9000 h1         1 6H5       0.039700
     47 H10         -8.6300     4.3140    -0.8350 h1         1 6H5       0.039700
     48 H11         -6.5310     5.2410    -0.4070 ha         1 6H5       0.135000
     49 H12         -4.1660     5.6040    -0.8980 ha         1 6H5       0.133000
     50 H13         -4.9080    -1.4090    -3.6910 ha         1 6H5       0.131000
     51 H14         -0.8210    -2.7210    -0.0660 h1         1 6H5       0.037450
     52 H15         -0.9740    -4.0610    -1.1900 h1         1 6H5       0.037450
     53 H16          0.1780    -4.7940     0.8490 hc         1 6H5       0.052450
     54 H17         -1.1460    -4.2180     1.8550 hc         1 6H5       0.052450
     55 H18          4.8700    -0.3790     2.8530 ha         1 6H5       0.123500
     56 H19         -3.6490    -6.6930     0.3870 hc         1 6H5       0.052450
     57 H20         -3.5190    -5.3940     1.5650 hc         1 6H5       0.052450
     58 H21         -1.2720    -6.4730    -0.2020 hc         1 6H5       0.039700
     59 H22         -1.3990    -6.6570     1.5380 hc         1 6H5       0.039700
     60 H23         -2.5670     3.7170    -0.9650 ha         1 6H5       0.154000
     61 H25          7.1490     0.5580    -2.1560 h1         1 6H5       0.042700
     62 H26          8.8310    -0.7490    -1.2000 hn         1 6H5       0.328300
     63 H27          9.0650     0.2760     0.0060 hn         1 6H5       0.328300
     64 H29          6.7060     2.8030    -1.1710 hc         1 6H5       0.054200
     65 H30          7.6710     2.3730     0.2300 hc         1 6H5       0.054200
     66 H31          6.8250     0.7250     1.8750 ha         1 6H5       0.138000
     67 H32         -0.6490    -0.2650    -0.0430 hn         1 6H5       0.430800
     68 H33         -3.2080    -5.1660    -1.4600 h1         1 6H5       0.037450
     69 H34         -4.5400    -4.5480    -0.4820 h1         1 6H5       0.037450
     70 H35         -4.1020    -3.4180    -2.5530 ha         1 6H5       0.135000
     71 H36         -4.4710     0.8330    -2.7540 ha         1 6H5       0.148000
     72 C2           7.0220     1.9640    -0.5520 c3         1 6H5      -0.028100
     73 O4          10.1020     1.5520    -1.9770 o          1 6H5      -0.835300
     74 C15         -8.5510     3.8150     0.1340 c3         1 6H5       0.126700
@<TRIPOS>BOND
     1     1     6 1   
     2     1     7 1   
     3     1    38 1   
     4     2     4 ar  
     5     2    28 ar  
     6     2    72 1   
     7     3     6 2   
     8     3    39 1   
     9     4     9 ar  
    10     4    40 1   
    11     5    10 1   
    12     5    30 1   
    13     5    41 1   
    14     5    42 1   
    15     6    30 1   
    16     7     8 1   
    17     7    29 2   
    18     8     9 ar  
    19     8    20 ar  
    20     9    43 1   
    21    10    17 ar  
    22    10    35 ar  
    23    11    12 ar  
    24    11    23 ar  
    25    11    36 1   
    26    12    13 ar  
    27    12    44 1   
    28    13    14 ar  
    29    13    37 1   
    30    14    15 ar  
    31    14    48 1   
    32    15    23 ar  
    33    15    49 1   
    34    16    33 ar  
    35    16    34 ar  
    36    16    50 1   
    37    17    31 1   
    38    17    33 ar  
    39    18    19 1   
    40    18    31 1   
    41    18    51 1   
    42    18    52 1   
    43    19    22 1   
    44    19    53 1   
    45    19    54 1   
    46    20    28 ar  
    47    20    55 1   
    48    21    22 1   
    49    21    32 1   
    50    21    56 1   
    51    21    57 1   
    52    22    58 1   
    53    22    59 1   
    54    23    60 1   
    55    24    25 1   
    56    24    26 1   
    57    24    73 1   
    58    26    27 1   
    59    26    61 1   
    60    26    72 1   
    61    27    62 1   
    62    27    63 1   
    63    28    66 1   
    64    30    67 1   
    65    31    32 1   
    66    32    68 1   
    67    32    69 1   
    68    33    70 1   
    69    34    35 ar  
    70    34    71 1   
    71    35    36 1   
    72    37    74 1   
    73    45    74 1   
    74    46    74 1   
    75    47    74 1   
    76    64    72 1   
    77    65    72 1   
@<TRIPOS>SUBSTRUCTURE
     1 6H5         1 TEMP              0 ****  ****    0 ROOT
