@<TRIPOS>MOLECULE
6H5
   74    77     1     0     0
SMALL
No Charge or Current Charge


@<TRIPOS>ATOM
      1 N1           1.1350     0.3490     1.6790 ns         1 6H5      -0.459400
      2 C3           6.1340     0.1000     0.5190 ca         1 6H5      -0.001300
      3 N2          -0.5720     0.8080     3.1710 n2         1 6H5      -0.842100
      4 C4           5.0740     0.9130     0.0770 ca         1 6H5      -0.117000
      5 C9          -2.3120    -0.2000     1.0050 c3         1 6H5       0.286100
      6 C8          -0.1590     0.3410     2.0800 c2         1 6H5       0.687800
      7 C7           2.1270    -0.4620     2.1520 c          1 6H5       0.636700
      8 C6           3.5120    -0.2450     1.5710 ca         1 6H5      -0.188600
      9 C5           3.7770     0.7450     0.5920 ca         1 6H5      -0.080000
     10 C10         -2.8220    -0.3520    -0.4240 ca         1 6H5      -0.141300
     11 C12         -5.0070     2.4870    -0.3000 ca         1 6H5       0.156100
     12 C13         -6.2040     1.7470    -0.3170 ca         1 6H5      -0.197000
     13 C14         -7.4420     2.4040    -0.2680 ca         1 6H5       0.159100
     14 C16         -7.4820     3.8140    -0.1930 ca         1 6H5      -0.218000
     15 C17         -6.2860     4.5520    -0.1620 ca         1 6H5      -0.054000
     16 C20         -3.8140    -0.6250    -3.0580 ca         1 6H5      -0.062000
     17 C22         -2.6030    -1.5460    -1.1480 ca         1 6H5       0.313000
     18 C23         -0.4060    -2.6640    -0.7230 c6         1 6H5       0.191800
     19 C24          0.2280    -3.4310     0.4620 c6         1 6H5      -0.079400
     20 C28          4.5840    -1.0550     2.0110 ca         1 6H5      -0.080000
     21 C26         -1.9200    -4.7690     0.6840 c6         1 6H5      -0.079400
     22 C25         -0.3760    -4.8510     0.5920 c6         1 6H5      -0.075400
     23 C18         -5.0500     3.8870    -0.2120 ca         1 6H5      -0.158000
     24 C            9.0980     0.4130    -2.0730 c          1 6H5       0.692000
     25 O            9.0910     1.3300    -2.8830 o          1 6H5      -0.730000
     26 C1           7.7100    -0.1090    -1.5190 c3         1 6H5       0.017500
     27 N            7.4330    -1.5820    -1.7090 n8         1 6H5      -0.998200
     28 C29          5.8780    -0.8830     1.4930 ca         1 6H5      -0.117000
     29 O3           1.9040    -1.3270     2.9890 o          1 6H5      -0.555100
     30 N3          -0.9680     0.3940     1.0070 nu         1 6H5      -0.981400
     31 N4          -1.8850    -2.6200    -0.5840 nh         1 6H5      -0.792400
     32 C27         -2.5140    -3.9650    -0.4980 c6         1 6H5       0.191800
     33 C21         -3.1010    -1.6720    -2.4580 ca         1 6H5      -0.183000
     34 C19         -4.0380     0.5590    -2.3420 ca         1 6H5      -0.180000
     35 C11         -3.5560     0.6930    -1.0270 ca         1 6H5       0.146100
     36 O1          -3.7800     1.8630    -0.3340 os         1 6H5      -0.250200
     37 O2          -8.5820     1.6290    -0.2920 os         1 6H5      -0.342100
     38 H1           1.3950     1.0420     1.0010 hn         1 6H5       0.323500
     39 H2          -1.5780     0.9510     3.0440 hn         1 6H5       0.378400
     40 H3           5.2580     1.6820    -0.6690 ha         1 6H5       0.120000
     41 H4          -3.0060     0.4230     1.5870 h1         1 6H5       0.054700
     42 H5          -2.2900    -1.1840     1.4950 h1         1 6H5       0.054700
     43 H6           2.9930     1.3970     0.2170 ha         1 6H5       0.105500
     44 H7          -6.1790     0.6630    -0.3640 ha         1 6H5       0.140000
     45 H8         -10.6610     1.4110    -0.2780 h1         1 6H5       0.039700
     46 H9         -10.0450     2.7760     0.6770 h1         1 6H5       0.039700
     47 H10        -10.0670     2.8670    -1.1050 h1         1 6H5       0.039700
     48 H11         -8.4250     4.3510    -0.1530 ha         1 6H5       0.117000
     49 H12         -6.3170     5.6380    -0.0990 ha         1 6H5       0.115000
     50 H13         -4.1880    -0.7290    -4.0750 ha         1 6H5       0.113000
     51 H14          0.0090    -1.6470    -0.7540 h1         1 6H5       0.037450
     52 H15         -0.1330    -3.1580    -1.6670 h1         1 6H5       0.037450
     53 H16          1.3160    -3.4930     0.3270 hc         1 6H5       0.052450
     54 H17          0.0570    -2.8710     1.3900 hc         1 6H5       0.052450
     55 H18          4.4180    -1.8260     2.7610 ha         1 6H5       0.105500
     56 H19         -2.3510    -5.7790     0.7000 hc         1 6H5       0.052450
     57 H20         -2.2080    -4.2910     1.6300 hc         1 6H5       0.052450
     58 H21         -0.0880    -5.4580    -0.2770 hc         1 6H5       0.039700
     59 H22          0.0300    -5.3550     1.4790 hc         1 6H5       0.039700
     60 H23         -4.1240     4.4550    -0.1870 ha         1 6H5       0.136000
     61 H25          6.9380     0.4280    -2.0890 h1         1 6H5       0.042700
     62 H26          7.4960    -1.8080    -2.7090 hn         1 6H5       0.383500
     63 H27          8.2140    -2.1110    -1.3020 hn         1 6H5       0.383500
     64 H29          7.8080     1.3640     0.0650 hc         1 6H5       0.054200
     65 H30          8.2780    -0.2390     0.5770 hc         1 6H5       0.054200
     66 H31          6.6860    -1.5180     1.8490 ha         1 6H5       0.120000
     67 H32         -0.4780     0.2700     0.1290 hn         1 6H5       0.486000
     68 H33         -2.3510    -4.5180    -1.4350 h1         1 6H5       0.037450
     69 H34         -3.6000    -3.8690    -0.3540 h1         1 6H5       0.037450
     70 H35         -2.9240    -2.5870    -3.0160 ha         1 6H5       0.117000
     71 H36         -4.5860     1.3740    -2.8090 ha         1 6H5       0.130000
     72 C2           7.5440     0.3040    -0.0310 c3         1 6H5      -0.028100
     73 O4          10.1160    -0.1890    -1.7560 o          1 6H5      -0.730000
     74 C15         -9.9010     2.2020    -0.2470 c3         1 6H5       0.149900
@<TRIPOS>BOND
     1     1     6 1   
     2     1     7 1   
     3     1    38 1   
     4     2     4 ar  
     5     2    28 ar  
     6     2    72 1   
     7     3     6 2   
     8     3    39 1   
     9     4     9 ar  
    10     4    40 1   
    11     5    10 1   
    12     5    30 1   
    13     5    41 1   
    14     5    42 1   
    15     6    30 1   
    16     7     8 1   
    17     7    29 2   
    18     8     9 ar  
    19     8    20 ar  
    20     9    43 1   
    21    10    17 ar  
    22    10    35 ar  
    23    11    12 ar  
    24    11    23 ar  
    25    11    36 1   
    26    12    13 ar  
    27    12    44 1   
    28    13    14 ar  
    29    13    37 1   
    30    14    15 ar  
    31    14    48 1   
    32    15    23 ar  
    33    15    49 1   
    34    16    33 ar  
    35    16    34 ar  
    36    16    50 1   
    37    17    31 1   
    38    17    33 ar  
    39    18    19 1   
    40    18    31 1   
    41    18    51 1   
    42    18    52 1   
    43    19    22 1   
    44    19    53 1   
    45    19    54 1   
    46    20    28 ar  
    47    20    55 1   
    48    21    22 1   
    49    21    32 1   
    50    21    56 1   
    51    21    57 1   
    52    22    58 1   
    53    22    59 1   
    54    23    60 1   
    55    24    25 1   
    56    24    26 1   
    57    24    73 1   
    58    26    27 1   
    59    26    61 1   
    60    26    72 1   
    61    27    62 1   
    62    27    63 1   
    63    28    66 1   
    64    30    67 1   
    65    31    32 1   
    66    32    68 1   
    67    32    69 1   
    68    33    70 1   
    69    34    35 ar  
    70    34    71 1   
    71    35    36 1   
    72    37    74 1   
    73    45    74 1   
    74    46    74 1   
    75    47    74 1   
    76    64    72 1   
    77    65    72 1   
@<TRIPOS>SUBSTRUCTURE
     1 6H5         1 TEMP              0 ****  ****    0 ROOT
