@<TRIPOS>MOLECULE
6H6
   23    24     1     0     0
SMALL
bcc


@<TRIPOS>ATOM
      1 O           -3.8120     0.6000    -1.0020 o          1 6H6      -0.837300
      2 N1           0.1520    -0.6010    -0.4050 n          1 6H6      -0.366000
      3 C2           0.6020    -1.8540    -0.1340 c          1 6H6       0.820600
      4 O2           1.9210    -1.7650     0.2040 os         1 6H6      -0.307200
      5 C3           2.2820    -0.4510     0.1640 ca         1 6H6       0.037100
      6 C4           3.5070     0.1050     0.4400 ca         1 6H6      -0.109000
      7 C5           3.5960     1.4930     0.3220 ca         1 6H6      -0.154000
      8 C6           2.4980     2.2580    -0.0580 ca         1 6H6      -0.128000
      9 C7           1.2620     1.6750    -0.3350 ca         1 6H6      -0.116000
     10 C8           1.1800     0.3020    -0.2130 ca         1 6H6       0.014600
     11 C9          -1.2260    -0.2670    -0.7250 c3         1 6H6       0.132000
     12 C10         -1.9810     0.2570     0.4860 c3         1 6H6      -0.238400
     13 C11         -3.4370     0.6590     0.1850 c          1 6H6       0.934600
     14 OXT         -4.1170     1.0180     1.1660 o          1 6H6      -0.837300
     15 H4           4.3570    -0.4970     0.7330 ha         1 6H6       0.140000
     16 H5           4.5380     1.9800     0.5320 ha         1 6H6       0.123000
     17 H6           2.6020     3.3310    -0.1390 ha         1 6H6       0.126000
     18 H7           0.4110     2.2760    -0.6280 ha         1 6H6       0.160000
     19 H9          -1.2090     0.4680    -1.5300 h1         1 6H6       0.068700
     20 H9A         -1.6960    -1.1630    -1.1240 h1         1 6H6       0.068700
     21 H10         -1.9760    -0.4980     1.2780 hc         1 6H6       0.031700
     22 H10A        -1.4630     1.1270     0.9040 hc         1 6H6       0.031700
     23 O1           0.0120    -2.9020    -0.1670 o          1 6H6      -0.597500
@<TRIPOS>BOND
     1     1    13 1   
     2     2     3 1   
     3     2    10 1   
     4     2    11 1   
     5     3     4 1   
     6     3    23 2   
     7     4     5 1   
     8     5     6 ar  
     9     5    10 ar  
    10     6     7 ar  
    11     6    15 1   
    12     7     8 ar  
    13     7    16 1   
    14     8     9 ar  
    15     8    17 1   
    16     9    10 ar  
    17     9    18 1   
    18    11    12 1   
    19    11    19 1   
    20    11    20 1   
    21    12    13 1   
    22    12    21 1   
    23    12    22 1   
    24    13    14 1   
@<TRIPOS>SUBSTRUCTURE
     1 6H6         1 TEMP              0 ****  ****    0 ROOT
