@<TRIPOS>MOLECULE
6H6
   23    24     1     0     0
SMALL
No Charge or Current Charge


@<TRIPOS>ATOM
      1 O           -3.6570     1.7380    -0.3850 o          1 6H6      -0.732000
      2 N1           0.1370    -0.6380    -0.3230 n          1 6H6      -0.299000
      3 C2           0.5780    -1.9240     0.0400 c          1 6H6       0.678100
      4 O2           1.8910    -1.7530     0.4280 os         1 6H6      -0.307200
      5 C3           2.2490    -0.4350     0.3190 ca         1 6H6       0.037100
      6 C4           3.5100     0.1370     0.5140 ca         1 6H6      -0.091000
      7 C5           3.6490     1.5130     0.2230 ca         1 6H6      -0.136000
      8 C6           2.5540     2.2580    -0.2850 ca         1 6H6      -0.110000
      9 C7           1.2970     1.6440    -0.4890 ca         1 6H6      -0.098000
     10 C8           1.1680     0.3010    -0.1120 ca         1 6H6       0.014600
     11 C9          -1.2660    -0.3020    -0.6170 c3         1 6H6       0.132000
     12 C10         -1.9850     0.3700     0.5690 c3         1 6H6      -0.238400
     13 C11         -3.4260     0.6700     0.1590 c          1 6H6       0.724000
     14 OXT         -4.2660    -0.1980     0.3370 o          1 6H6      -0.732000
     15 H4           4.3520    -0.4590     0.8570 ha         1 6H6       0.122000
     16 H5           4.6140     1.9980     0.3610 ha         1 6H6       0.105000
     17 H6           2.6870     3.3080    -0.5390 ha         1 6H6       0.108000
     18 H7           0.4620     2.1950    -0.9140 ha         1 6H6       0.142000
     19 H9          -1.2880     0.3710    -1.4850 h1         1 6H6       0.068700
     20 H9A         -1.8040    -1.2170    -0.8990 h1         1 6H6       0.068700
     21 H10         -1.9560    -0.3560     1.3910 hc         1 6H6       0.031700
     22 H10A        -1.4390     1.2980     0.7750 hc         1 6H6       0.031700
     23 O1          -0.0580    -2.9690     0.0320 o          1 6H6      -0.522000
@<TRIPOS>BOND
     1     1    13 1   
     2     2     3 1   
     3     2    10 1   
     4     2    11 1   
     5     3     4 1   
     6     3    23 2   
     7     4     5 1   
     8     5     6 ar  
     9     5    10 ar  
    10     6     7 ar  
    11     6    15 1   
    12     7     8 ar  
    13     7    16 1   
    14     8     9 ar  
    15     8    17 1   
    16     9    10 ar  
    17     9    18 1   
    18    11    12 1   
    19    11    19 1   
    20    11    20 1   
    21    12    13 1   
    22    12    21 1   
    23    12    22 1   
    24    13    14 1   
@<TRIPOS>SUBSTRUCTURE
     1 6H6         1 TEMP              0 ****  ****    0 ROOT
