@<TRIPOS>MOLECULE
6H8
   27    28     1     0     0
SMALL
No Charge or Current Charge


@<TRIPOS>ATOM
      1 C2          -0.7400     0.1470    -0.1020 ca         1 6H8      -0.057200
      2 C4           1.5940    -0.4310    -0.1690 ca         1 6H8       0.322000
      3 C5           3.6590     0.8760     0.0330 c2         1 6H8       0.816100
      4 C6           1.2480    -1.7520     0.2010 ca         1 6H8      -0.187000
      5 C1          -2.9090    -0.0220     0.1480 cc         1 6H8       0.639700
      6 C3           0.5830     0.5400    -0.3330 ca         1 6H8      -0.141000
      7 C8          -1.0870    -1.1240     0.2640 ca         1 6H8       0.073400
      8 N4           3.3020     1.6520     0.9370 n2         1 6H8      -0.889100
      9 N3           4.8760     0.5040    -0.2560 nv         1 6H8      -1.069200
     10 N2           2.9290    -0.1220    -0.4020 nu         1 6H8      -0.930200
     11 C7          -0.1020    -2.1100     0.4250 ca         1 6H8      -0.038000
     12 N1          -1.8980     0.8570    -0.1790 na         1 6H8      -0.350600
     13 N5          -2.4670    -1.2480     0.4270 nd         1 6H8      -0.640100
     14 N           -4.2210     0.2950     0.1900 nu         1 6H8      -0.887400
     15 C           -4.8280     1.6030    -0.0930 c3         1 6H8       0.202100
     16 H1           2.0230    -2.5030     0.3180 ha         1 6H8       0.104000
     17 H2           0.8280     1.5560    -0.6270 ha         1 6H8       0.160000
     18 H3           4.1300     2.1590     1.2620 hn         1 6H8       0.380400
     19 H4           5.5760     1.1150     0.1440 hn         1 6H8       0.452500
     20 H5           4.9950     0.3710    -1.2520 hn         1 6H8       0.452500
     21 H6           3.5300    -0.9290    -0.4650 hn         1 6H8       0.491000
     22 H7          -0.3720    -3.1230     0.7120 ha         1 6H8       0.125000
     23 H8          -2.0170     1.8280    -0.4220 hn         1 6H8       0.355000
     24 H10         -4.8200    -0.4870     0.4530 hn         1 6H8       0.502000
     25 H11         -4.4400     2.3640     0.5970 h1         1 6H8       0.037700
     26 H12         -4.6040     1.9160    -1.1220 h1         1 6H8       0.037700
     27 H13         -5.9190     1.5530     0.0240 h1         1 6H8       0.037700
@<TRIPOS>BOND
     1     1     6 ar  
     2     1     7 ar  
     3     1    12 1   
     4     2     4 ar  
     5     2     6 ar  
     6     2    10 1   
     7     3     8 2   
     8     3     9 1   
     9     3    10 1   
    10     4    11 ar  
    11     4    16 1   
    12     5    12 1   
    13     5    13 2   
    14     5    14 1   
    15     6    17 1   
    16     7    11 ar  
    17     7    13 1   
    18     8    18 1   
    19     9    19 1   
    20     9    20 1   
    21    10    21 1   
    22    11    22 1   
    23    12    23 1   
    24    14    15 1   
    25    14    24 1   
    26    15    25 1   
    27    15    26 1   
    28    15    27 1   
@<TRIPOS>SUBSTRUCTURE
     1 6H8         1 TEMP              0 ****  ****    0 ROOT
