@<TRIPOS>MOLECULE
6H8
   27    28     1     0     0
SMALL
abcg2


@<TRIPOS>ATOM
      1 C2          -0.7360     0.0840    -0.0120 ca         1 6H8      -0.057200
      2 C4           1.5510    -0.5190     0.0800 ca         1 6H8       0.322000
      3 C5           3.6230     0.8940     0.0380 c2         1 6H8       0.816100
      4 C6           1.1510    -1.8680     0.1340 ca         1 6H8      -0.187000
      5 C1          -2.9350    -0.0890    -0.0580 cc         1 6H8       0.639700
      6 C3           0.5880     0.4890     0.0070 ca         1 6H8      -0.141000
      7 C8          -1.1540    -1.2530     0.0440 ca         1 6H8       0.073400
      8 N4           3.0390     2.0340     0.0330 n2         1 6H8      -0.889100
      9 N3           4.9890     0.6910     0.0490 nv         1 6H8      -1.069200
     10 N2           2.9260    -0.2860     0.0990 nu         1 6H8      -0.930200
     11 C7          -0.1820    -2.2450     0.1180 ca         1 6H8      -0.038000
     12 N1          -1.9050     0.8080    -0.0760 na         1 6H8      -0.350600
     13 N5          -2.5300    -1.3340     0.0150 nd         1 6H8      -0.640100
     14 N           -4.2240     0.3040    -0.1510 nu         1 6H8      -0.887400
     15 C           -4.6270     1.6680     0.1020 c3         1 6H8       0.202100
     16 H1           1.9100    -2.6400     0.1870 ha         1 6H8       0.104000
     17 H2           0.8750     1.5280    -0.0280 ha         1 6H8       0.160000
     18 H3           3.7210     2.7790    -0.0480 hn         1 6H8       0.380400
     19 H4           5.5350     1.4970    -0.2120 hn         1 6H8       0.452500
     20 H5           5.3270    -0.1440    -0.4070 hn         1 6H8       0.452500
     21 H6           3.4860    -1.1160     0.2110 hn         1 6H8       0.491000
     22 H7          -0.4520    -3.2920     0.1620 ha         1 6H8       0.125000
     23 H8          -1.9800     1.8110    -0.1210 hn         1 6H8       0.355000
     24 H10         -4.8910    -0.4140     0.0780 hn         1 6H8       0.502000
     25 H11         -4.3730     2.0160     1.1080 h1         1 6H8       0.037700
     26 H12         -4.1770     2.3500    -0.6210 h1         1 6H8       0.037700
     27 H13         -5.7040     1.7360    -0.0190 h1         1 6H8       0.037700
@<TRIPOS>BOND
     1     1     6 ar  
     2     1     7 ar  
     3     1    12 1   
     4     2     4 ar  
     5     2     6 ar  
     6     2    10 1   
     7     3     8 2   
     8     3     9 1   
     9     3    10 1   
    10     4    11 ar  
    11     4    16 1   
    12     5    12 1   
    13     5    13 2   
    14     5    14 1   
    15     6    17 1   
    16     7    11 ar  
    17     7    13 1   
    18     8    18 1   
    19     9    19 1   
    20     9    20 1   
    21    10    21 1   
    22    11    22 1   
    23    12    23 1   
    24    14    15 1   
    25    14    24 1   
    26    15    25 1   
    27    15    26 1   
    28    15    27 1   
@<TRIPOS>SUBSTRUCTURE
     1 6H8         1 TEMP              0 ****  ****    0 ROOT
