@<TRIPOS>MOLECULE
6H9
   26    27     1     0     0
SMALL
No Charge or Current Charge


@<TRIPOS>ATOM
      1 C1          -2.9860     0.3320    -0.0400 cc         1 6H9       0.667700
      2 C2          -1.1300    -0.8220     0.0610 ca         1 6H9      -0.073200
      3 C3          -0.1320    -1.7950     0.1380 ca         1 6H9      -0.118000
      4 C4           1.2100    -1.3570     0.1280 ca         1 6H9      -0.093000
      5 C5           1.5240     0.0330     0.0420 ca         1 6H9      -0.172600
      6 C6           2.9530     0.5400     0.0300 c          1 6H9       0.635700
      7 O            3.2160     1.7340    -0.0440 o          1 6H9      -0.563100
      8 N2           3.9630    -0.4280     0.1060 ns         1 6H9      -0.412300
      9 N3           5.4000    -0.1530     0.1090 n8         1 6H9      -0.717200
     10 C7           0.4630     0.9760    -0.0330 ca         1 6H9      -0.012000
     11 C8          -0.8610     0.5150    -0.0220 ca         1 6H9       0.099400
     12 N1          -2.4850    -0.9480     0.0500 na         1 6H9      -0.353600
     13 N4          -2.0370     1.2660    -0.0870 nd         1 6H9      -0.645100
     14 N           -4.2980     0.6450    -0.0780 nu         1 6H9      -0.912400
     15 C           -5.4350    -0.2850    -0.0220 c3         1 6H9       0.218100
     16 H1          -0.3770    -2.8520     0.2030 ha         1 6H9       0.116000
     17 H2           1.9910    -2.1100     0.1880 ha         1 6H9       0.109000
     18 H3           3.6470    -1.3950     0.1650 hn         1 6H9       0.298500
     19 H4           5.8500    -0.5060     0.9670 hn         1 6H9       0.394500
     20 H5           5.8730    -0.6130    -0.6830 hn         1 6H9       0.394500
     21 H6           0.6580     2.0430    -0.1000 ha         1 6H9       0.150000
     22 H7          -3.0320    -1.7930     0.0970 hn         1 6H9       0.355000
     23 H9          -4.4730     1.6470    -0.1400 hn         1 6H9       0.520000
     24 H10         -5.4010    -0.9860    -0.8670 h1         1 6H9       0.038367
     25 H11         -5.4150    -0.8610     0.9130 h1         1 6H9       0.038367
     26 H12         -6.3840     0.2660    -0.0680 h1         1 6H9       0.038367
@<TRIPOS>BOND
     1     1    12 1   
     2     1    13 2   
     3     1    14 1   
     4     2     3 ar  
     5     2    11 ar  
     6     2    12 1   
     7     3     4 ar  
     8     3    16 1   
     9     4     5 ar  
    10     4    17 1   
    11     5     6 1   
    12     5    10 ar  
    13     6     7 2   
    14     6     8 1   
    15     8     9 1   
    16     8    18 1   
    17     9    19 1   
    18     9    20 1   
    19    10    11 ar  
    20    10    21 1   
    21    11    13 1   
    22    12    22 1   
    23    14    15 1   
    24    14    23 1   
    25    15    24 1   
    26    15    25 1   
    27    15    26 1   
@<TRIPOS>SUBSTRUCTURE
     1 6H9         1 TEMP              0 ****  ****    0 ROOT
