@<TRIPOS>MOLECULE
6H9
   26    27     1     0     0
SMALL
bcc


@<TRIPOS>ATOM
      1 C1          -2.9310     0.3960     0.0000 cc         1 6H9       0.667700
      2 C2          -1.1110    -0.8410    -0.1110 ca         1 6H9      -0.073200
      3 C3          -0.1370    -1.8180    -0.1860 ca         1 6H9      -0.136000
      4 C4           1.1850    -1.3940    -0.2120 ca         1 6H9      -0.111000
      5 C5           1.5170    -0.0320    -0.1710 ca         1 6H9      -0.172600
      6 C6           2.9340     0.4380    -0.2270 c          1 6H9       0.702700
      7 O            3.2330     1.5160    -0.7180 o          1 6H9      -0.563100
      8 N2           3.8330    -0.4080     0.3160 ns         1 6H9      -0.479300
      9 N3           5.1860    -0.1180     0.3010 n8         1 6H9      -0.606800
     10 C7           0.5190     0.9410    -0.1180 ca         1 6H9      -0.030000
     11 C8          -0.8060     0.5340    -0.0730 ca         1 6H9       0.099400
     12 N1          -2.4820    -0.8940    -0.0640 na         1 6H9      -0.303300
     13 N4          -1.9570     1.2790    -0.0020 nd         1 6H9      -0.645100
     14 N           -4.2380     0.6880     0.0400 nu         1 6H9      -0.857200
     15 C           -5.2750    -0.3080     0.1560 c3         1 6H9       0.218100
     16 H1          -0.3840    -2.8710    -0.2330 ha         1 6H9       0.134000
     17 H2           1.9600    -2.1450    -0.2960 ha         1 6H9       0.127000
     18 H3           3.5120    -1.2080     0.8410 hn         1 6H9       0.298500
     19 H4           5.5060     0.0260     1.2500 hn         1 6H9       0.339300
     20 H5           5.6840    -0.9160    -0.0700 hn         1 6H9       0.339300
     21 H6           0.7710     1.9930    -0.1000 ha         1 6H9       0.168000
     22 H7          -3.0450    -1.7290    -0.0560 hn         1 6H9       0.304700
     23 H9          -4.4710     1.6520     0.2030 hn         1 6H9       0.464800
     24 H10         -5.2660    -0.9950    -0.6920 h1         1 6H9       0.038367
     25 H11         -5.2000    -0.8910     1.0770 h1         1 6H9       0.038367
     26 H12         -6.2360     0.1970     0.1560 h1         1 6H9       0.038367
@<TRIPOS>BOND
     1     1    12 1   
     2     1    13 2   
     3     1    14 1   
     4     2     3 ar  
     5     2    11 ar  
     6     2    12 1   
     7     3     4 ar  
     8     3    16 1   
     9     4     5 ar  
    10     4    17 1   
    11     5     6 1   
    12     5    10 ar  
    13     6     7 2   
    14     6     8 1   
    15     8     9 1   
    16     8    18 1   
    17     9    19 1   
    18     9    20 1   
    19    10    11 ar  
    20    10    21 1   
    21    11    13 1   
    22    12    22 1   
    23    14    15 1   
    24    14    23 1   
    25    15    24 1   
    26    15    25 1   
    27    15    26 1   
@<TRIPOS>SUBSTRUCTURE
     1 6H9         1 TEMP              0 ****  ****    0 ROOT
