@<TRIPOS>MOLECULE
6HD
   24    25     1     0     0
SMALL
abcg2


@<TRIPOS>ATOM
      1 O            3.6150    -1.5910    -0.0270 o          1 6HD      -0.613100
      2 C6           3.3500    -0.3930    -0.0090 c          1 6HD       0.621700
      3 N2           4.3190     0.5360     0.0160 nt         1 6HD      -0.608000
      4 C5           1.9320     0.0810    -0.0130 ca         1 6HD      -0.168600
      5 C4           1.5770     1.4380    -0.0250 ca         1 6HD      -0.087000
      6 C3           0.2510     1.8450    -0.0340 ca         1 6HD      -0.121000
      7 C7           0.9400    -0.9010    -0.0110 ca         1 6HD      -0.009000
      8 C8          -0.3910    -0.5160    -0.0200 ca         1 6HD       0.096400
      9 C2          -0.7140     0.8550    -0.0330 ca         1 6HD      -0.071200
     10 N1          -2.0850     0.8880    -0.0420 na         1 6HD      -0.352600
     11 N3          -1.5320    -1.2790    -0.0220 nc         1 6HD      -0.644100
     12 C1          -2.5180    -0.4090    -0.0380 cd         1 6HD       0.667700
     13 N           -3.8210    -0.7170    -0.0620 nu         1 6HD      -0.916400
     14 C           -4.8780     0.2610     0.0060 c3         1 6HD       0.220100
     15 H1           5.2820     0.2440     0.0180 hn         1 6HD       0.311500
     16 H2           4.1490     1.5250     0.0370 hn         1 6HD       0.311500
     17 H3           2.3280     2.2160    -0.0290 ha         1 6HD       0.102000
     18 H4          -0.0060     2.8960    -0.0440 ha         1 6HD       0.115000
     19 H5           1.2060    -1.9500    -0.0020 ha         1 6HD       0.154000
     20 H6          -2.6610     1.7150    -0.0470 hn         1 6HD       0.355000
     21 H8          -4.0510    -1.6920     0.0280 hn         1 6HD       0.522000
     22 H9          -4.8560     0.8390     0.9330 h1         1 6HD       0.038367
     23 H10         -4.8400     0.9540    -0.8370 h1         1 6HD       0.038367
     24 H11         -5.8290    -0.2600    -0.0410 h1         1 6HD       0.038367
@<TRIPOS>BOND
     1     1     2 2   
     2     2     3 1   
     3     2     4 1   
     4     3    15 1   
     5     3    16 1   
     6     4     5 ar  
     7     4     7 ar  
     8     5     6 ar  
     9     5    17 1   
    10     6     9 ar  
    11     6    18 1   
    12     7     8 ar  
    13     7    19 1   
    14     8     9 ar  
    15     8    11 1   
    16     9    10 1   
    17    10    12 1   
    18    10    20 1   
    19    11    12 2   
    20    12    13 1   
    21    13    14 1   
    22    13    21 1   
    23    14    22 1   
    24    14    23 1   
    25    14    24 1   
@<TRIPOS>SUBSTRUCTURE
     1 6HD         1 TEMP              0 ****  ****    0 ROOT
