@<TRIPOS>MOLECULE
6HD
   24    25     1     0     0
SMALL
No Charge or Current Charge


@<TRIPOS>ATOM
      1 O            3.7020    -1.5960    -0.0040 o          1 6HD      -0.613100
      2 C6           3.3970    -0.4140    -0.0060 c          1 6HD       0.621700
      3 N2           4.3760     0.5150    -0.0040 nt         1 6HD      -0.608000
      4 C5           1.9610     0.0570    -0.0110 ca         1 6HD      -0.168600
      5 C4           1.6210     1.4420    -0.0130 ca         1 6HD      -0.087000
      6 C3           0.2720     1.8510    -0.0170 ca         1 6HD      -0.121000
      7 C7           0.9190    -0.9070    -0.0120 ca         1 6HD      -0.009000
      8 C8          -0.4160    -0.4760    -0.0170 ca         1 6HD       0.096400
      9 C2          -0.7130     0.8590    -0.0190 ca         1 6HD      -0.071200
     10 N1          -2.0730     0.9980    -0.0230 na         1 6HD      -0.352600
     11 N3          -1.5660    -1.2530    -0.0190 nc         1 6HD      -0.644100
     12 C1          -2.5110    -0.3160    -0.0230 cd         1 6HD       0.667700
     13 N           -3.8050    -0.6800    -0.0260 nu         1 6HD      -0.916400
     14 C           -4.9790     0.2050    -0.0080 c3         1 6HD       0.220100
     15 H1           5.3390     0.2140    -0.0010 hn         1 6HD       0.311500
     16 H2           4.1440     1.4960    -0.0060 hn         1 6HD       0.311500
     17 H3           2.3910     2.2090    -0.0120 ha         1 6HD       0.102000
     18 H4           0.0080     2.9060    -0.0190 ha         1 6HD       0.115000
     19 H5           1.1380    -1.9720    -0.0110 ha         1 6HD       0.154000
     20 H6          -2.6390     1.8320    -0.0260 hn         1 6HD       0.355000
     21 H8          -3.9390    -1.6900    -0.0140 hn         1 6HD       0.522000
     22 H9          -4.9700     0.8370     0.8910 h1         1 6HD       0.038367
     23 H10         -4.9850     0.8540    -0.8930 h1         1 6HD       0.038367
     24 H11         -5.9040    -0.3870    -0.0060 h1         1 6HD       0.038367
@<TRIPOS>BOND
     1     1     2 2   
     2     2     3 1   
     3     2     4 1   
     4     3    15 1   
     5     3    16 1   
     6     4     5 ar  
     7     4     7 ar  
     8     5     6 ar  
     9     5    17 1   
    10     6     9 ar  
    11     6    18 1   
    12     7     8 ar  
    13     7    19 1   
    14     8     9 ar  
    15     8    11 1   
    16     9    10 1   
    17    10    12 1   
    18    10    20 1   
    19    11    12 2   
    20    12    13 1   
    21    13    14 1   
    22    13    21 1   
    23    14    22 1   
    24    14    23 1   
    25    14    24 1   
@<TRIPOS>SUBSTRUCTURE
     1 6HD         1 TEMP              0 ****  ****    0 ROOT
