@<TRIPOS>MOLECULE
6HF
   62    66     1     0     0
SMALL
No Charge or Current Charge


@<TRIPOS>ATOM
      1 C01          9.2250    -2.7750    -1.3310 c3         1 6HF       0.151100
      2 N02          9.0350    -2.1630     0.0060 n3         1 6HF      -0.712600
      3 C03          8.0560    -2.9000     0.8640 c6         1 6HF       0.158300
      4 C04          6.5740    -2.7450     0.3830 c6         1 6HF       0.157800
      5 C05          8.6420    -0.7200    -0.0530 c6         1 6HF       0.158300
      6 C06          7.1760    -0.4990    -0.5600 c6         1 6HF       0.157800
      7 N07          6.1690    -1.3120     0.2000 nh         1 6HF      -0.774400
      8 C08          4.8060    -0.9260     0.2100 ca         1 6HF       0.257000
      9 C09          4.4460     0.3830     0.5840 ca         1 6HF      -0.131000
     10 C10          3.0970     0.7850     0.6020 ca         1 6HF      -0.126000
     11 C11          3.7820    -1.8310    -0.1370 ca         1 6HF      -0.131000
     12 C12          2.4320    -1.4290    -0.1200 ca         1 6HF      -0.126000
     13 C13          2.0780    -0.1160     0.2360 ca         1 6HF       0.290000
     14 N14          0.7220     0.2320     0.2510 nu         1 6HF      -0.924900
     15 C15          0.0180     1.4170     0.1140 ca         1 6HF       0.437900
     16 N16          0.6850     2.5370    -0.2340 nb         1 6HF      -0.276000
     17 C17         -0.0590     3.6490    -0.3590 ca         1 6HF       0.175500
     18 C18         -1.4110     3.6170    -0.1500 ca         1 6HF      -0.258800
     19 C19         -1.9360     4.9340    -0.3500 cc         1 6HF      -0.167200
     20 C20         -0.8590     5.7390    -0.6830 cd         1 6HF      -0.195100
     21 N21          0.3150     4.9410    -0.6910 na         1 6HF      -0.319400
     22 C22         -2.0430     2.4140     0.1940 ca         1 6HF       0.438300
     23 O23         -3.4030     2.4090     0.4170 os         1 6HF      -0.354400
     24 C24         -4.1850     1.2870     0.2590 ca         1 6HF       0.079100
     25 C25         -5.1460     0.9810     1.2340 ca         1 6HF      -0.076000
     26 C26         -5.9710    -0.1500     1.0880 ca         1 6HF      -0.145500
     27 C27         -5.8450    -0.9840    -0.0470 ca         1 6HF      -0.015000
     28 N28         -6.6440    -2.1410    -0.2660 ns         1 6HF      -0.142000
     29 C29         -7.6190    -2.7660     0.4990 c          1 6HF       0.609300
     30 C30         -8.2080    -3.9770    -0.1540 ce         1 6HF      -0.308200
     31 C31         -9.1530    -4.7700     0.4110 c2         1 6HF      -0.222000
     32 O32         -7.9800    -2.3920     1.6090 o          1 6HF      -0.581100
     33 C33         -4.8890    -0.6570    -1.0290 ca         1 6HF      -0.145500
     34 C34         -4.0650     0.4720    -0.8830 ca         1 6HF      -0.076000
     35 N35         -1.3030     1.2930     0.3330 nb         1 6HF      -0.340000
     36 H012         9.9870    -2.2280    -1.9010 h1         1 6HF       0.030700
     37 H011         9.5610    -3.8160    -1.2330 h1         1 6HF       0.030700
     38 H013         8.2940    -2.7710    -1.9130 h1         1 6HF       0.030700
     39 H032         8.3080    -3.9700     0.9070 h1         1 6HF       0.059450
     40 H031         8.1180    -2.5260     1.8970 h1         1 6HF       0.059450
     41 H042         6.4460    -3.2910    -0.5630 h1         1 6HF       0.039700
     42 H041         5.9230    -3.2270     1.1270 h1         1 6HF       0.039700
     43 H051         8.7230    -0.2750     0.9500 h1         1 6HF       0.059450
     44 H052         9.3320    -0.1560    -0.6980 h1         1 6HF       0.059450
     45 H062         6.9490     0.5730    -0.4830 h1         1 6HF       0.039700
     46 H061         7.1250    -0.7580    -1.6270 h1         1 6HF       0.039700
     47 H091         5.2140     1.0910     0.8830 ha         1 6HF       0.112500
     48 H101         2.8540     1.7920     0.9220 ha         1 6HF       0.127500
     49 H111         4.0230    -2.8470    -0.4340 ha         1 6HF       0.112500
     50 H121         1.6610    -2.1430    -0.3960 ha         1 6HF       0.127500
     51 H141         0.0940    -0.5680     0.3030 hn         1 6HF       0.511000
     52 H191        -2.9740     5.2570    -0.2620 ha         1 6HF       0.214000
     53 H201        -0.8400     6.8030    -0.9120 h4         1 6HF       0.217000
     54 H211         1.2600     5.2490    -0.9000 hn         1 6HF       0.360000
     55 H251        -5.2500     1.6200     2.1080 ha         1 6HF       0.128500
     56 H261        -6.7010    -0.3540     1.8640 ha         1 6HF       0.131500
     57 H281        -6.4650    -2.5940    -1.1530 hn         1 6HF       0.151000
     58 H301        -7.8230    -4.2120    -1.1460 ha         1 6HF       0.177000
     59 H312        -9.5610    -4.5700     1.4040 ha         1 6HF       0.178500
     60 H311        -9.5500    -5.6460    -0.1050 ha         1 6HF       0.178500
     61 H331        -4.7840    -1.2810    -1.9140 ha         1 6HF       0.131500
     62 H341        -3.3390     0.7140    -1.6560 ha         1 6HF       0.128500
@<TRIPOS>BOND
     1     1     2 1   
     2     1    36 1   
     3     1    37 1   
     4     1    38 1   
     5     2     3 1   
     6     2     5 1   
     7     3     4 1   
     8     3    39 1   
     9     3    40 1   
    10     4     7 1   
    11     4    41 1   
    12     4    42 1   
    13     5     6 1   
    14     5    43 1   
    15     5    44 1   
    16     6     7 1   
    17     6    45 1   
    18     6    46 1   
    19     7     8 1   
    20     8     9 ar  
    21     8    11 ar  
    22     9    10 ar  
    23     9    47 1   
    24    10    13 ar  
    25    10    48 1   
    26    11    12 ar  
    27    11    49 1   
    28    12    13 ar  
    29    12    50 1   
    30    13    14 1   
    31    14    15 1   
    32    14    51 1   
    33    15    16 ar  
    34    15    35 ar  
    35    16    17 ar  
    36    17    18 ar  
    37    17    21 1   
    38    18    19 1   
    39    18    22 ar  
    40    19    20 2   
    41    19    52 1   
    42    20    21 1   
    43    20    53 1   
    44    21    54 1   
    45    22    23 1   
    46    22    35 ar  
    47    23    24 1   
    48    24    25 ar  
    49    24    34 ar  
    50    25    26 ar  
    51    25    55 1   
    52    26    27 ar  
    53    26    56 1   
    54    27    28 1   
    55    27    33 ar  
    56    28    29 1   
    57    28    57 1   
    58    29    30 1   
    59    29    32 2   
    60    30    31 2   
    61    30    58 1   
    62    31    59 1   
    63    31    60 1   
    64    33    34 ar  
    65    33    61 1   
    66    34    62 1   
@<TRIPOS>SUBSTRUCTURE
     1 6HF         1 TEMP              0 ****  ****    0 ROOT
