@<TRIPOS>MOLECULE
6HF
   62    66     1     0     0
SMALL
abcg2


@<TRIPOS>ATOM
      1 C01          8.6280    -3.1200    -1.1950 c3         1 6HF       0.151100
      2 N02          8.5180    -2.4330     0.0760 n3         1 6HF      -0.712600
      3 C03          7.5270    -3.0040     0.9670 c6         1 6HF       0.158300
      4 C04          6.0850    -2.7120     0.5670 c6         1 6HF       0.157800
      5 C05          8.2700    -1.0100    -0.0500 c6         1 6HF       0.158300
      6 C06          6.8470    -0.6630    -0.4730 c6         1 6HF       0.157800
      7 N07          5.8750    -1.2820     0.4230 nh         1 6HF      -0.774400
      8 C08          4.5510    -0.8470     0.3000 ca         1 6HF       0.257000
      9 C09          4.2450     0.5180     0.2620 ca         1 6HF      -0.131000
     10 C10          2.9450     0.9880     0.1650 ca         1 6HF      -0.126000
     11 C11          3.4660    -1.7290     0.2410 ca         1 6HF      -0.131000
     12 C12          2.1640    -1.2660     0.1590 ca         1 6HF      -0.126000
     13 C13          1.8700     0.0970     0.1130 ca         1 6HF       0.290000
     14 N14          0.5260     0.4510     0.0190 nu         1 6HF      -0.924900
     15 C15         -0.0860     1.6650    -0.0370 ca         1 6HF       0.437900
     16 N16          0.6210     2.7780    -0.0100 nb         1 6HF      -0.276000
     17 C17         -0.1220     3.8830    -0.0750 ca         1 6HF       0.175500
     18 C18         -1.5200     3.9340    -0.1650 ca         1 6HF      -0.258800
     19 C19         -1.9010     5.3100    -0.2130 cc         1 6HF      -0.167200
     20 C20         -0.7410     6.0200    -0.1510 cd         1 6HF      -0.195100
     21 N21          0.3290     5.1550    -0.0680 na         1 6HF      -0.319400
     22 C22         -2.1260     2.6760    -0.1820 ca         1 6HF       0.438300
     23 O23         -3.4610     2.6240    -0.2660 os         1 6HF      -0.354400
     24 C24         -4.0800     1.3890    -0.2830 ca         1 6HF       0.079100
     25 C25         -4.4480     0.7840     0.9030 ca         1 6HF      -0.076000
     26 C26         -5.1250    -0.4270     0.8940 ca         1 6HF      -0.145500
     27 C27         -5.4370    -1.0420    -0.3200 ca         1 6HF      -0.015000
     28 N28         -6.1070    -2.2610    -0.4420 ns         1 6HF      -0.142000
     29 C29         -6.6670    -3.0370     0.5220 c          1 6HF       0.609300
     30 C30         -7.3130    -4.2600    -0.0180 ce         1 6HF      -0.308200
     31 C31         -7.9010    -5.1430     0.7810 c2         1 6HF      -0.222000
     32 O32         -6.6500    -2.7680     1.7120 o          1 6HF      -0.581100
     33 C33         -5.0580    -0.4130    -1.5090 ca         1 6HF      -0.145500
     34 C34         -4.3810     0.7930    -1.4950 ca         1 6HF      -0.076000
     35 N35         -1.4320     1.5730    -0.1220 nb         1 6HF      -0.340000
     36 H012         9.4470    -2.6860    -1.7720 h1         1 6HF       0.030700
     37 H011         8.8680    -4.1700    -1.0220 h1         1 6HF       0.030700
     38 H013         7.7310    -3.0890    -1.8270 h1         1 6HF       0.030700
     39 H032         7.6700    -4.0850     1.0290 h1         1 6HF       0.059450
     40 H031         7.6990    -2.6000     1.9700 h1         1 6HF       0.059450
     41 H042         5.8240    -3.2580    -0.3530 h1         1 6HF       0.039700
     42 H041         5.4350    -3.0940     1.3560 h1         1 6HF       0.039700
     43 H051         8.4700    -0.5400     0.9190 h1         1 6HF       0.059450
     44 H052         8.9710    -0.5790    -0.7680 h1         1 6HF       0.059450
     45 H062         6.7460     0.4200    -0.4470 h1         1 6HF       0.039700
     46 H061         6.6690    -0.9740    -1.5140 h1         1 6HF       0.039700
     47 H091         5.0350     1.2550     0.3250 ha         1 6HF       0.112500
     48 H101         2.7750     2.0520     0.1410 ha         1 6HF       0.127500
     49 H111         3.6150    -2.8000     0.2520 ha         1 6HF       0.112500
     50 H121         1.3590    -1.9910     0.1170 ha         1 6HF       0.127500
     51 H141        -0.1220    -0.3200    -0.0130 hn         1 6HF       0.511000
     52 H191        -2.8950     5.7180    -0.2840 ha         1 6HF       0.214000
     53 H201        -0.5800     7.0850    -0.1600 h4         1 6HF       0.217000
     54 H211         1.2970     5.4290    -0.0120 hn         1 6HF       0.360000
     55 H251        -4.2130     1.2530     1.8500 ha         1 6HF       0.128500
     56 H261        -5.3960    -0.8790     1.8330 ha         1 6HF       0.131500
     57 H281        -6.2040    -2.5940    -1.3900 hn         1 6HF       0.151000
     58 H301        -7.2940    -4.4210    -1.0910 ha         1 6HF       0.177000
     59 H312        -7.9340    -5.0080     1.8550 ha         1 6HF       0.178500
     60 H311        -8.3680    -6.0320     0.3820 ha         1 6HF       0.178500
     61 H331        -5.2930    -0.8730    -2.4610 ha         1 6HF       0.131500
     62 H341        -4.1000     1.2650    -2.4270 ha         1 6HF       0.128500
@<TRIPOS>BOND
     1     1     2 1   
     2     1    36 1   
     3     1    37 1   
     4     1    38 1   
     5     2     3 1   
     6     2     5 1   
     7     3     4 1   
     8     3    39 1   
     9     3    40 1   
    10     4     7 1   
    11     4    41 1   
    12     4    42 1   
    13     5     6 1   
    14     5    43 1   
    15     5    44 1   
    16     6     7 1   
    17     6    45 1   
    18     6    46 1   
    19     7     8 1   
    20     8     9 ar  
    21     8    11 ar  
    22     9    10 ar  
    23     9    47 1   
    24    10    13 ar  
    25    10    48 1   
    26    11    12 ar  
    27    11    49 1   
    28    12    13 ar  
    29    12    50 1   
    30    13    14 1   
    31    14    15 1   
    32    14    51 1   
    33    15    16 ar  
    34    15    35 ar  
    35    16    17 ar  
    36    17    18 ar  
    37    17    21 1   
    38    18    19 1   
    39    18    22 ar  
    40    19    20 2   
    41    19    52 1   
    42    20    21 1   
    43    20    53 1   
    44    21    54 1   
    45    22    23 1   
    46    22    35 ar  
    47    23    24 1   
    48    24    25 ar  
    49    24    34 ar  
    50    25    26 ar  
    51    25    55 1   
    52    26    27 ar  
    53    26    56 1   
    54    27    28 1   
    55    27    33 ar  
    56    28    29 1   
    57    28    57 1   
    58    29    30 1   
    59    29    32 2   
    60    30    31 2   
    61    30    58 1   
    62    31    59 1   
    63    31    60 1   
    64    33    34 ar  
    65    33    61 1   
    66    34    62 1   
@<TRIPOS>SUBSTRUCTURE
     1 6HF         1 TEMP              0 ****  ****    0 ROOT
