@<TRIPOS>MOLECULE
6HH
   48    51     1     0     0
SMALL
abcg2


@<TRIPOS>ATOM
      1 C4           3.3320     1.0500    -0.2970 ca         1 6HH      -0.112000
      2 N2          -4.0580     3.0240     1.0150 nv         1 6HH      -1.058900
      3 C7          -0.3660     1.2830     0.4130 cp         1 6HH      -0.089000
      4 C6           0.9850     0.7360     0.2090 cp         1 6HH      -0.078000
      5 C9          -2.7790     1.1110     0.2380 cp         1 6HH      -0.167000
      6 C13         -5.0140     0.1030     0.7450 ca         1 6HH      -0.097000
      7 C20          6.5640    -1.8980     1.1740 c5         1 6HH      -0.082400
      8 C21          5.6110    -2.9690     0.6530 c5         1 6HH      -0.082400
      9 C8          -1.5170     0.5830     0.0430 ca         1 6HH      -0.029000
     10 C18          5.0070    -0.8240    -0.3950 c5         1 6HH      -0.153700
     11 C16         -5.1830    -0.9430    -1.8210 ca         1 6HH      -0.108500
     12 C19          5.7740    -0.6130     0.9380 c5         1 6HH      -0.053400
     13 C1           1.2380    -0.6310     0.3060 ca         1 6HH      -0.106500
     14 C2           2.5110    -1.1450     0.0940 ca         1 6HH      -0.112000
     15 C3           3.5870    -0.3220    -0.2240 ca         1 6HH       0.029700
     16 C5           2.0650     1.5690    -0.0940 ca         1 6HH      -0.106500
     17 C10         -2.8610     2.4060     0.8010 ca         1 6HH       0.588900
     18 N1          -1.7720     3.0740     1.1720 nb         1 6HH      -0.751000
     19 C11         -0.5790     2.5270     0.9920 ca         1 6HH       0.384900
     20 C12         -3.9790     0.3460    -0.1590 cp         1 6HH      -0.013000
     21 C14         -6.1200    -0.6490     0.3820 ca         1 6HH      -0.108500
     22 C15         -6.1950    -1.1660    -0.9020 ca         1 6HH       0.113000
     23 C17         -4.0830    -0.1870    -1.4430 ca         1 6HH      -0.097000
     24 CL1         -7.5750    -2.1070    -1.3630 cl         1 6HH      -0.219000
     25 C22          5.1180    -2.3550    -0.6540 c5         1 6HH      -0.053400
     26 C23          5.6400    -0.1050    -1.6180 c          1 6HH       0.723000
     27 O1           6.6930     0.5400    -1.4580 o          1 6HH      -0.721000
     28 O2           5.0290    -0.2670    -2.6940 o          1 6HH      -0.721000
     29 H3           4.1410     1.7340    -0.5250 ha         1 6HH       0.121000
     30 H7          -4.8420     2.7480     0.4460 hn         1 6HH       0.465000
     31 H8          -4.0060     4.0160     1.1810 hn         1 6HH       0.465000
     32 H9          -4.9570     0.4910     1.7540 ha         1 6HH       0.128500
     33 H16          6.8520    -2.0350     2.2170 hc         1 6HH       0.025450
     34 H15          7.4800    -1.8970     0.5750 hc         1 6HH       0.025450
     35 H18          6.0810    -3.9440     0.5110 hc         1 6HH       0.025450
     36 H17          4.7860    -3.1040     1.3610 hc         1 6HH       0.025450
     37 H5          -1.4290    -0.3990    -0.4090 ha         1 6HH       0.124000
     38 H11         -5.2480    -1.3450    -2.8220 ha         1 6HH       0.125500
     39 H14          5.0630    -0.4880     1.7600 hc         1 6HH       0.040700
     40 H13          6.3950     0.2800     0.9060 hc         1 6HH       0.040700
     41 H1           0.4370    -1.3120     0.5670 ha         1 6HH       0.093000
     42 H2           2.6500    -2.2150     0.1940 ha         1 6HH       0.121000
     43 H4           1.9140     2.6360    -0.1970 ha         1 6HH       0.093000
     44 H6           0.2630     3.1180     1.3390 h4         1 6HH       0.023100
     45 H10         -6.9090    -0.8350     1.0980 ha         1 6HH       0.125500
     46 H12         -3.3000    -0.0050    -2.1680 ha         1 6HH       0.128500
     47 H19          5.8740    -2.5400    -1.4220 hc         1 6HH       0.040700
     48 H20          4.1970    -2.8000    -1.0310 hc         1 6HH       0.040700
@<TRIPOS>BOND
     1     1    15 ar  
     2     1    16 ar  
     3     1    29 1   
     4     2    17 1   
     5     2    30 1   
     6     2    31 1   
     7     3     4 1   
     8     3     9 ar  
     9     3    19 ar  
    10     4    13 ar  
    11     4    16 ar  
    12     5     9 ar  
    13     5    17 ar  
    14     5    20 1   
    15     6    20 ar  
    16     6    21 ar  
    17     6    32 1   
    18     7     8 1   
    19     7    12 1   
    20     7    33 1   
    21     7    34 1   
    22     8    25 1   
    23     8    35 1   
    24     8    36 1   
    25     9    37 1   
    26    10    12 1   
    27    10    15 1   
    28    10    25 1   
    29    10    26 1   
    30    11    22 ar  
    31    11    23 ar  
    32    11    38 1   
    33    12    39 1   
    34    12    40 1   
    35    13    14 ar  
    36    13    41 1   
    37    14    15 ar  
    38    14    42 1   
    39    16    43 1   
    40    17    18 ar  
    41    18    19 ar  
    42    19    44 1   
    43    20    23 ar  
    44    21    22 ar  
    45    21    45 1   
    46    22    24 1   
    47    23    46 1   
    48    25    47 1   
    49    25    48 1   
    50    26    27 1   
    51    26    28 1   
@<TRIPOS>SUBSTRUCTURE
     1 6HH         1 TEMP              0 ****  ****    0 ROOT
