@<TRIPOS>MOLECULE
6HH
   48    51     1     0     0
SMALL
No Charge or Current Charge


@<TRIPOS>ATOM
      1 C4           3.3780     1.1730    -0.3780 ca         1 6HH      -0.112000
      2 N2          -4.0280     3.1660     0.7820 nv         1 6HH      -1.058900
      3 C7          -0.3900     1.3800     0.3030 cp         1 6HH      -0.089000
      4 C6           1.0000     0.8400     0.1480 cp         1 6HH      -0.078000
      5 C9          -2.8290     1.1200     0.1930 cp         1 6HH      -0.167000
      6 C13         -5.1260     0.2180     0.8020 ca         1 6HH      -0.097000
      7 C20          6.5200    -2.1930     1.0450 c5         1 6HH      -0.082400
      8 C21          5.5380    -3.1110     0.2800 c5         1 6HH      -0.082400
      9 C8          -1.5300     0.5860     0.0310 ca         1 6HH      -0.029000
     10 C18          5.1120    -0.7300    -0.2990 c5         1 6HH      -0.153700
     11 C16         -5.2240    -1.2910    -1.5650 ca         1 6HH      -0.108500
     12 C19          5.6500    -0.9200     1.1720 c5         1 6HH      -0.053400
     13 C1           1.2920    -0.5230     0.3890 ca         1 6HH      -0.106500
     14 C2           2.5950    -1.0260     0.2450 ca         1 6HH      -0.112000
     15 C3           3.6650    -0.1930    -0.1600 ca         1 6HH       0.029700
     16 C5           2.0750     1.6780    -0.2330 ca         1 6HH      -0.106500
     17 C10         -2.8990     2.4670     0.6270 ca         1 6HH       0.588900
     18 N1          -1.8630     3.2520     0.8860 nb         1 6HH      -0.751000
     19 C11         -0.6310     2.7130     0.7300 ca         1 6HH       0.384900
     20 C12         -4.0350     0.2840    -0.1000 cp         1 6HH      -0.013000
     21 C14         -6.2490    -0.5810     0.5230 ca         1 6HH      -0.108500
     22 C15         -6.2970    -1.3330    -0.6620 ca         1 6HH       0.113000
     23 C17         -4.1010    -0.4920    -1.2840 ca         1 6HH      -0.097000
     24 Cl1         -7.7010    -2.3330    -1.0110 cl         1 6HH      -0.219000
     25 C22          5.1130    -2.1960    -0.9030 c5         1 6HH      -0.053400
     26 C23          6.0410     0.1780    -1.1880 c          1 6HH       0.723000
     27 O1           6.9640     0.8030    -0.6830 o          1 6HH      -0.721000
     28 O2           5.8070     0.2610    -2.3860 o          1 6HH      -0.721000
     29 H3           4.1670     1.8640    -0.6610 ha         1 6HH       0.121000
     30 H7          -4.8440     2.8320     0.2830 hn         1 6HH       0.465000
     31 H8          -3.9070     4.1690     0.8410 hn         1 6HH       0.465000
     32 H9          -5.0950     0.7800     1.7330 ha         1 6HH       0.128500
     33 H16          6.8020    -2.6040     2.0210 hc         1 6HH       0.025450
     34 H15          7.4420    -2.0110     0.4800 hc         1 6HH       0.025450
     35 H18          6.0140    -4.0370    -0.0630 hc         1 6HH       0.025450
     36 H17          4.6840    -3.3990     0.9050 hc         1 6HH       0.025450
     37 H5          -1.4110    -0.4400    -0.3090 ha         1 6HH       0.124000
     38 H11         -5.2620    -1.8750    -2.4810 ha         1 6HH       0.125500
     39 H14          4.8380    -1.0940     1.8890 hc         1 6HH       0.040700
     40 H13          6.2080    -0.0610     1.5580 hc         1 6HH       0.040700
     41 H1           0.5050    -1.1990     0.7110 ha         1 6HH       0.093000
     42 H2           2.7670    -2.0760     0.4650 ha         1 6HH       0.121000
     43 H4           1.9010     2.7320    -0.4300 ha         1 6HH       0.093000
     44 H6           0.2020     3.3740     0.9660 h4         1 6HH       0.023100
     45 H10         -7.0780    -0.6220     1.2250 ha         1 6HH       0.125500
     46 H12         -3.2790    -0.4640    -1.9950 ha         1 6HH       0.128500
     47 H19          5.8530    -2.2920    -1.7070 hc         1 6HH       0.040700
     48 H20          4.1600    -2.4980    -1.3500 hc         1 6HH       0.040700
@<TRIPOS>BOND
     1     1    15 ar  
     2     1    16 ar  
     3     1    29 1   
     4     2    17 1   
     5     2    30 1   
     6     2    31 1   
     7     3     4 1   
     8     3     9 ar  
     9     3    19 ar  
    10     4    13 ar  
    11     4    16 ar  
    12     5     9 ar  
    13     5    17 ar  
    14     5    20 1   
    15     6    20 ar  
    16     6    21 ar  
    17     6    32 1   
    18     7     8 1   
    19     7    12 1   
    20     7    33 1   
    21     7    34 1   
    22     8    25 1   
    23     8    35 1   
    24     8    36 1   
    25     9    37 1   
    26    10    12 1   
    27    10    15 1   
    28    10    25 1   
    29    10    26 1   
    30    11    22 ar  
    31    11    23 ar  
    32    11    38 1   
    33    12    39 1   
    34    12    40 1   
    35    13    14 ar  
    36    13    41 1   
    37    14    15 ar  
    38    14    42 1   
    39    16    43 1   
    40    17    18 ar  
    41    18    19 ar  
    42    19    44 1   
    43    20    23 ar  
    44    21    22 ar  
    45    21    45 1   
    46    22    24 1   
    47    23    46 1   
    48    25    47 1   
    49    25    48 1   
    50    26    27 1   
    51    26    28 1   
@<TRIPOS>SUBSTRUCTURE
     1 6HH         1 TEMP              0 ****  ****    0 ROOT
