@<TRIPOS>MOLECULE
6HI
   67    69     1     0     0
SMALL
No Charge or Current Charge


@<TRIPOS>ATOM
      1 N3          -1.7890    -0.1160     0.4820 nc         1 6HI      -0.679000
      2 C4           0.8480    -3.9440     0.4640 c3         1 6HI      -0.104600
      3 C5          -0.5090     0.2350     0.7460 cc         1 6HI       0.285500
      4 C6          -0.2460    -3.3450     1.3780 c3         1 6HI       0.071300
      5 C7           1.7830    -0.8330     1.3650 c3         1 6HI      -0.010100
      6 C8           2.6120    -0.6960     0.0650 c3         1 6HI      -0.114400
      7 C10          4.9150    -0.3250    -1.0170 c3         1 6HI      -0.148400
      8 C13          0.0210    -3.5860     2.8810 c3         1 6HI      -0.104600
      9 C15          1.1120     3.5870     1.4500 ca         1 6HI      -0.154500
     10 C17         -6.6170    -0.3640    -1.8470 ca         1 6HI      -0.067000
     11 C20         -7.4360     0.7100    -2.2400 ca         1 6HI      -0.155500
     12 C21         -0.1810     2.2570    -0.6610 ca         1 6HI      -0.072000
     13 C24          0.2940     3.5690    -0.8410 ca         1 6HI      -0.154500
     14 C26         -7.1500     0.0860     0.4880 ca         1 6HI      -0.067000
     15 C29         -8.1080     1.4680    -1.2690 ca         1 6HI       0.176000
     16 C23         -7.9680     1.1600     0.0920 ca         1 6HI      -0.155500
     17 C32         -6.4730    -0.6810    -0.4820 ca         1 6HI      -0.127300
     18 C1          -5.5840    -1.8380    -0.0560 c3         1 6HI       0.156300
     19 N2          -4.2150    -1.3890     0.1660 ns         1 6HI      -0.488900
     20 C3          -3.1670    -2.1990     0.5540 c          1 6HI       0.544600
     21 O2          -3.3420    -3.3990     0.7460 o          1 6HI      -0.627100
     22 C2          -1.8570    -1.4340     0.7050 cd         1 6HI       0.326000
     23 N4          -0.5820    -1.9240     1.0730 na         1 6HI      -0.114500
     24 C12          0.2880    -0.8220     1.0950 cd         1 6HI      -0.138300
     25 C27          0.0080     1.5930     0.5680 ca         1 6HI      -0.112500
     26 C30          0.9430     4.2270     0.2130 ca         1 6HI       0.168000
     27 F1           1.3970     5.4870     0.0410 f          1 6HI      -0.182000
     28 C18          0.6380     2.2750     1.6310 ca         1 6HI      -0.072000
     29 C9           4.1380    -0.5930     0.2960 c3         1 6HI       0.169300
     30 O4           4.6080    -1.8150     0.8770 oh         1 6HI      -0.653000
     31 C11          6.4150     0.0150    -0.8220 c3         1 6HI       0.187300
     32 O3           7.0420    -1.0910    -0.1780 oh         1 6HI      -0.637000
     33 C35          7.1310     0.3190    -2.1570 c3         1 6HI      -0.236400
     34 C36          8.5060     0.9450    -1.8880 c          1 6HI       0.726000
     35 O7           8.5530     2.1500    -1.6900 o          1 6HI      -0.735000
     36 O6           9.4920     0.2230    -1.8870 o          1 6HI      -0.735000
     37 H4           1.8480    -3.5800     0.7160 hc         1 6HI       0.049533
     38 H4A          0.8650    -5.0360     0.5630 hc         1 6HI       0.049533
     39 H4B          0.6450    -3.7060    -0.5870 hc         1 6HI       0.049533
     40 H6          -1.1290    -3.9450     1.1490 h1         1 6HI       0.099700
     41 H7           2.0900    -1.7330     1.9040 hc         1 6HI       0.061700
     42 H7A          2.0480    -0.0100     2.0370 hc         1 6HI       0.061700
     43 H8           2.3920    -1.5370    -0.6030 hc         1 6HI       0.048200
     44 H8A          2.2810     0.2080    -0.4610 hc         1 6HI       0.048200
     45 H10          4.8150    -1.1890    -1.6870 hc         1 6HI       0.037700
     46 H10A         4.4400     0.5200    -1.5310 hc         1 6HI       0.037700
     47 H13          0.9180    -3.0640     3.2290 hc         1 6HI       0.049533
     48 H13A        -0.8290    -3.2360     3.4800 hc         1 6HI       0.049533
     49 H13B         0.1540    -4.6560     3.0800 hc         1 6HI       0.049533
     50 H15          1.6010     4.1090     2.2680 ha         1 6HI       0.130500
     51 H21         -0.6880     1.7500    -1.4800 ha         1 6HI       0.123000
     52 H24          0.1570     4.0740    -1.7930 ha         1 6HI       0.130500
     53 H26         -7.0420    -0.1480     1.5450 ha         1 6HI       0.122500
     54 H23         -8.4910     1.7530     0.8390 ha         1 6HI       0.132500
     55 H1          -5.9690    -2.2840     0.8710 h1         1 6HI       0.057200
     56 H1A         -5.5850    -2.6160    -0.8320 h1         1 6HI       0.057200
     57 HN2         -3.9880    -0.4090     0.0320 hn         1 6HI       0.351500
     58 H18          0.7490     1.7950     2.6010 ha         1 6HI       0.123000
     59 H9           4.3240     0.2490     0.9800 h1         1 6HI       0.079700
     60 HO4          4.1060    -2.5440     0.4520 ho         1 6HI       0.426000
     61 H11          6.4750     0.9100    -0.1830 h1         1 6HI       0.084700
     62 HO3          6.3160    -1.5100     0.3460 ho         1 6HI       0.415000
     63 H35          7.2220    -0.6280    -2.7050 hc         1 6HI       0.017700
     64 H35A         6.4920     1.0540    -2.6610 hc         1 6HI       0.017700
     65 H17         -6.0950    -0.9480    -2.6030 ha         1 6HI       0.122500
     66 F2          -8.8940     2.5000    -1.6470 f          1 6HI      -0.180000
     67 H20         -7.5490     0.9560    -3.2930 ha         1 6HI       0.132500
@<TRIPOS>BOND
     1     1     3 1   
     2     1    22 2   
     3     2     4 1   
     4     2    37 1   
     5     2    38 1   
     6     2    39 1   
     7     3    24 2   
     8     3    25 1   
     9     4     8 1   
    10     4    23 1   
    11     4    40 1   
    12     5     6 1   
    13     5    24 1   
    14     5    41 1   
    15     5    42 1   
    16     6    29 1   
    17     6    43 1   
    18     6    44 1   
    19     7    29 1   
    20     7    31 1   
    21     7    45 1   
    22     7    46 1   
    23     8    47 1   
    24     8    48 1   
    25     8    49 1   
    26     9    26 ar  
    27     9    28 ar  
    28     9    50 1   
    29    10    11 ar  
    30    10    17 ar  
    31    10    65 1   
    32    11    15 ar  
    33    11    67 1   
    34    12    13 ar  
    35    12    25 ar  
    36    12    51 1   
    37    13    26 ar  
    38    13    52 1   
    39    14    16 ar  
    40    14    17 ar  
    41    14    53 1   
    42    15    16 ar  
    43    15    66 1   
    44    16    54 1   
    45    17    18 1   
    46    18    19 1   
    47    18    55 1   
    48    18    56 1   
    49    19    20 1   
    50    19    57 1   
    51    20    21 2   
    52    20    22 1   
    53    22    23 1   
    54    23    24 1   
    55    25    28 ar  
    56    26    27 1   
    57    28    58 1   
    58    29    30 1   
    59    29    59 1   
    60    30    60 1   
    61    31    32 1   
    62    31    33 1   
    63    31    61 1   
    64    32    62 1   
    65    33    34 1   
    66    33    63 1   
    67    33    64 1   
    68    34    35 1   
    69    34    36 1   
@<TRIPOS>SUBSTRUCTURE
     1 6HI         1 TEMP              0 ****  ****    0 ROOT
