@<TRIPOS>MOLECULE
6HI
   67    69     1     0     0
SMALL
bcc


@<TRIPOS>ATOM
      1 N3          -1.7480     0.0030     0.7140 nc         1 6HI      -0.679000
      2 C4           0.7710    -3.7590     0.3200 c3         1 6HI      -0.104600
      3 C5          -0.4590     0.3670     0.9100 cc         1 6HI       0.350800
      4 C6          -0.2550    -3.2410     1.3200 c3         1 6HI       0.042000
      5 C7           1.7740    -0.8800     1.3980 c3         1 6HI      -0.010100
      6 C8           2.5830    -0.6140     0.1270 c3         1 6HI      -0.114400
      7 C10          4.8520    -0.4590    -0.9420 c3         1 6HI      -0.148400
      8 C13          0.0990    -3.5420     2.7700 c3         1 6HI      -0.104600
      9 C15          1.3670     3.6750     1.2250 ca         1 6HI      -0.172500
     10 C17         -6.0610    -0.4410    -1.7610 ca         1 6HI      -0.085000
     11 C20         -6.8130     0.4820    -2.4690 ca         1 6HI      -0.173500
     12 C21         -0.8530     2.6070    -0.0470 ca         1 6HI      -0.090000
     13 C24         -0.5380     3.9430    -0.2300 ca         1 6HI      -0.172500
     14 C26         -7.3360     0.0070     0.2160 ca         1 6HI      -0.085000
     15 C29         -7.8260     1.1550    -1.8090 ca         1 6HI       0.140900
     16 C23         -8.1050     0.9340    -0.4760 ca         1 6HI      -0.173500
     17 C32         -6.3120    -0.6910    -0.4130 ca         1 6HI      -0.127300
     18 C1          -5.4800    -1.6890     0.3440 c3         1 6HI       0.156300
     19 N2          -4.1190    -1.2140     0.4710 ns         1 6HI      -0.555900
     20 C3          -3.0880    -2.0300     0.7290 c          1 6HI       0.611600
     21 O2          -3.2090    -3.2440     0.8470 o          1 6HI      -0.627100
     22 C2          -1.7980    -1.2990     0.8490 cd         1 6HI       0.326000
     23 N4          -0.5680    -1.8130     1.1240 na         1 6HI      -0.135900
     24 C12          0.3040    -0.7580     1.1750 cd         1 6HI      -0.152900
     25 C27         -0.0720     1.7760     0.7630 ca         1 6HI      -0.112500
     26 C30          0.5740     4.4560     0.4090 ca         1 6HI       0.132900
     27 F1           0.8900     5.7490     0.2320 f          1 6HI      -0.146900
     28 C18          1.0350     2.3390     1.3990 ca         1 6HI      -0.090000
     29 C9           4.0870    -0.7740     0.3420 c3         1 6HI       0.146100
     30 O4           4.3930    -2.0550     0.8620 oh         1 6HI      -0.590800
     31 C11          6.3370    -0.1430    -0.7730 c3         1 6HI       0.164100
     32 O3           7.0460    -1.1670    -0.1000 oh         1 6HI      -0.574800
     33 C35          6.9810     0.1750    -2.1150 c3         1 6HI      -0.236400
     34 C36          8.4540     0.6040    -2.0090 c          1 6HI       0.936600
     35 O7           8.7380     1.4130    -1.1020 o          1 6HI      -0.840300
     36 O6           9.2450     0.1370    -2.8540 o          1 6HI      -0.840300
     37 H4           1.7910    -3.4460     0.5350 hc         1 6HI       0.049533
     38 H4A          0.7570    -4.8480     0.3470 hc         1 6HI       0.049533
     39 H4B          0.5230    -3.4480    -0.6950 hc         1 6HI       0.049533
     40 H6          -1.1850    -3.7530     1.1020 h1         1 6HI       0.099700
     41 H7           2.0270    -1.8590     1.7930 hc         1 6HI       0.061700
     42 H7A          2.0820    -0.1800     2.1770 hc         1 6HI       0.061700
     43 H8           2.2520    -1.2890    -0.6710 hc         1 6HI       0.048200
     44 H8A          2.3830     0.3990    -0.2300 hc         1 6HI       0.048200
     45 H10          4.7200    -1.2860    -1.6530 hc         1 6HI       0.037700
     46 H10A         4.3880     0.4100    -1.4170 hc         1 6HI       0.037700
     47 H13          1.0400    -3.0900     3.0810 hc         1 6HI       0.049533
     48 H13A        -0.6860    -3.1950     3.4420 hc         1 6HI       0.049533
     49 H13B         0.1950    -4.6210     2.8970 hc         1 6HI       0.049533
     50 H15          2.2280     4.0980     1.7260 ha         1 6HI       0.148500
     51 H21         -1.7200     2.1990    -0.5490 ha         1 6HI       0.141000
     52 H24         -1.1470     4.5720    -0.8660 ha         1 6HI       0.148500
     53 H26         -7.5430    -0.1720     1.2640 ha         1 6HI       0.140500
     54 H23         -8.9030     1.4740     0.0170 ha         1 6HI       0.150500
     55 H1          -5.9220    -1.8720     1.3280 h1         1 6HI       0.057200
     56 H1A         -5.4700    -2.6460    -0.1800 h1         1 6HI       0.057200
     57 HN2         -3.9430    -0.2200     0.4650 hn         1 6HI       0.351500
     58 H18          1.6500     1.7480     2.0620 ha         1 6HI       0.141000
     59 H9           4.3940    -0.0660     1.1210 h1         1 6HI       0.079700
     60 HO4          4.2190    -2.7070     0.1740 ho         1 6HI       0.387000
     61 H11          6.4280     0.7370    -0.1300 h1         1 6HI       0.084700
     62 HO3          6.8990    -1.9920    -0.5720 ho         1 6HI       0.376000
     63 H35          6.8790    -0.6850    -2.7850 hc         1 6HI       0.017700
     64 H35A         6.4230     0.9940    -2.5870 hc         1 6HI       0.017700
     65 H17         -5.2680    -0.9750    -2.2710 ha         1 6HI       0.140500
     66 F2          -8.5620     2.0480    -2.4900 f          1 6HI      -0.144900
     67 H20         -6.6200     0.6730    -3.5170 ha         1 6HI       0.150500
@<TRIPOS>BOND
     1     1     3 1   
     2     1    22 2   
     3     2     4 1   
     4     2    37 1   
     5     2    38 1   
     6     2    39 1   
     7     3    24 2   
     8     3    25 1   
     9     4     8 1   
    10     4    23 1   
    11     4    40 1   
    12     5     6 1   
    13     5    24 1   
    14     5    41 1   
    15     5    42 1   
    16     6    29 1   
    17     6    43 1   
    18     6    44 1   
    19     7    29 1   
    20     7    31 1   
    21     7    45 1   
    22     7    46 1   
    23     8    47 1   
    24     8    48 1   
    25     8    49 1   
    26     9    26 ar  
    27     9    28 ar  
    28     9    50 1   
    29    10    11 ar  
    30    10    17 ar  
    31    10    65 1   
    32    11    15 ar  
    33    11    67 1   
    34    12    13 ar  
    35    12    25 ar  
    36    12    51 1   
    37    13    26 ar  
    38    13    52 1   
    39    14    16 ar  
    40    14    17 ar  
    41    14    53 1   
    42    15    16 ar  
    43    15    66 1   
    44    16    54 1   
    45    17    18 1   
    46    18    19 1   
    47    18    55 1   
    48    18    56 1   
    49    19    20 1   
    50    19    57 1   
    51    20    21 2   
    52    20    22 1   
    53    22    23 1   
    54    23    24 1   
    55    25    28 ar  
    56    26    27 1   
    57    28    58 1   
    58    29    30 1   
    59    29    59 1   
    60    30    60 1   
    61    31    32 1   
    62    31    33 1   
    63    31    61 1   
    64    32    62 1   
    65    33    34 1   
    66    33    63 1   
    67    33    64 1   
    68    34    35 1   
    69    34    36 1   
@<TRIPOS>SUBSTRUCTURE
     1 6HI         1 TEMP              0 ****  ****    0 ROOT
