@<TRIPOS>MOLECULE
6HJ
   53    57     1     0     0
SMALL
No Charge or Current Charge


@<TRIPOS>ATOM
      1 C4          -0.4270    -2.1110    -0.8660 ca         1 6HJ       0.158500
      2 C5           0.9270    -2.0930    -0.6700 ca         1 6HJ      -0.382900
      3 C6           1.6650    -3.2220    -1.0290 ca         1 6HJ       0.451900
      4 N1           1.0540    -4.3530    -1.4040 nb         1 6HJ      -0.311000
      5 N3          -1.0750    -3.2300    -1.2500 nb         1 6HJ      -0.233000
      6 CBD         -5.1070     1.8460     3.4780 c2         1 6HJ      -0.237000
      7 CBB         -4.3160     1.7360     2.3810 ce         1 6HJ      -0.293200
      8 OBC         -5.8820     2.4060     0.7430 o          1 6HJ      -0.603100
      9 NAW         -4.1170     1.1880    -0.0740 n          1 6HJ      -0.399800
     10 CAX         -2.7800     0.5470     0.1600 c6         1 6HJ       0.087000
     11 CAV         -4.4700     1.5150    -1.4940 c6         1 6HJ       0.086000
     12 CAU         -3.9300     0.5410    -2.5660 c6         1 6HJ      -0.101400
     13 CAT         -2.4420     0.2270    -2.3510 c6         1 6HJ      -0.085400
     14 CAS         -2.2730    -0.4030    -0.9570 c6         1 6HJ       0.081300
     15 NAG         -0.8630    -0.8040    -0.7250 na         1 6HJ      -0.021100
     16 NAH          0.1920     0.0620    -0.4410 nc         1 6HJ      -0.529100
     17 C2          -0.2960    -4.3130    -1.4630 ca         1 6HJ       0.195900
     18 NAY          3.0060    -3.2430    -1.1680 nv         1 6HJ      -1.065900
     19 CAI          1.2690    -0.7240    -0.3200 cd         1 6HJ       0.485200
     20 CAJ          2.4860    -0.1740     0.2500 cd         1 6HJ      -0.174800
     21 CAK          2.8350     1.2210     0.4730 ca         1 6HJ      -0.073800
     22 CAO          2.2060     2.4270     0.1200 ca         1 6HJ      -0.049000
     23 CAP          2.8400     3.6340     0.4850 ca         1 6HJ      -0.140000
     24 CAQ          4.0720     3.6150     1.1790 ca         1 6HJ      -0.090000
     25 CAR          4.6850     2.3890     1.5120 ca         1 6HJ      -0.128000
     26 CAL          4.0330     1.2030     1.1370 ca         1 6HJ      -0.053200
     27 NAM          4.4180    -0.1150     1.3360 na         1 6HJ      -0.082700
     28 CAZ          5.6460    -0.4690     2.0650 c3         1 6HJ       0.063900
     29 CAN          3.4620    -1.0000     0.8050 cc         1 6HJ      -0.149100
     30 H1          -6.1760     2.0490     3.4020 ha         1 6HJ       0.174500
     31 H2          -4.7060     1.7350     4.4870 ha         1 6HJ       0.174500
     32 H4          -3.2640     1.4970     2.5150 ha         1 6HJ       0.183000
     33 H6          -2.0460     1.3510     0.3080 h1         1 6HJ       0.067200
     34 H7          -2.8120    -0.0420     1.0870 h1         1 6HJ       0.067200
     35 H8          -5.5630     1.5670    -1.6000 h1         1 6HJ       0.064700
     36 H9          -4.0840     2.5220    -1.7120 h1         1 6HJ       0.064700
     37 H10         -4.5120    -0.3910    -2.5370 hc         1 6HJ       0.054700
     38 H11         -4.0850     0.9700    -3.5660 hc         1 6HJ       0.054700
     39 H12         -2.0880    -0.4660    -3.1260 hc         1 6HJ       0.058700
     40 H13         -1.8390     1.1430    -2.4360 hc         1 6HJ       0.058700
     41 H14         -2.8960    -1.3090    -0.9200 h1         1 6HJ       0.091700
     42 H15         -0.8020    -5.2290    -1.7650 h5         1 6HJ       0.046100
     43 H16          3.4770    -2.3530    -1.2970 hn         1 6HJ       0.498000
     44 H17          3.4080    -4.0300    -1.6700 hn         1 6HJ       0.498000
     45 H18          1.2640     2.4420    -0.4220 ha         1 6HJ       0.127000
     46 H19          2.3780     4.5840     0.2280 ha         1 6HJ       0.112000
     47 H20          4.5530     4.5520     1.4540 ha         1 6HJ       0.111000
     48 H21          5.6350     2.3710     2.0410 ha         1 6HJ       0.113000
     49 H22          5.5970    -0.0660     3.0850 h1         1 6HJ       0.051367
     50 H23          5.7490    -1.5590     2.1130 h1         1 6HJ       0.051367
     51 H24          6.5160    -0.0470     1.5480 h1         1 6HJ       0.051367
     52 H25          3.5280    -2.0730     0.9390 h4         1 6HJ       0.217000
     53 CBA         -4.8250     1.8330     0.9720 c          1 6HJ       0.604300
@<TRIPOS>BOND
     1     1     2 ar  
     2     1     5 ar  
     3     1    15 1   
     4     2     3 ar  
     5     2    19 1   
     6     3     4 ar  
     7     3    18 1   
     8     4    17 ar  
     9     5    17 ar  
    10     6     7 2   
    11     6    30 1   
    12     6    31 1   
    13     7    32 1   
    14     7    53 1   
    15     8    53 2   
    16     9    10 1   
    17     9    11 1   
    18     9    53 1   
    19    10    14 1   
    20    10    33 1   
    21    10    34 1   
    22    11    12 1   
    23    11    35 1   
    24    11    36 1   
    25    12    13 1   
    26    12    37 1   
    27    12    38 1   
    28    13    14 1   
    29    13    39 1   
    30    13    40 1   
    31    14    15 1   
    32    14    41 1   
    33    15    16 1   
    34    16    19 2   
    35    17    42 1   
    36    18    43 1   
    37    18    44 1   
    38    19    20 1   
    39    20    21 1   
    40    20    29 2   
    41    21    22 ar  
    42    21    26 ar  
    43    22    23 ar  
    44    22    45 1   
    45    23    24 ar  
    46    23    46 1   
    47    24    25 ar  
    48    24    47 1   
    49    25    26 ar  
    50    25    48 1   
    51    26    27 1   
    52    27    28 1   
    53    27    29 1   
    54    28    49 1   
    55    28    50 1   
    56    28    51 1   
    57    29    52 1   
@<TRIPOS>SUBSTRUCTURE
     1 6HJ         1 TEMP              0 ****  ****    0 ROOT
