@<TRIPOS>MOLECULE
6HJ
   53    57     1     0     0
SMALL
abcg2


@<TRIPOS>ATOM
      1 C4          -0.6360    -1.7500    -0.4090 ca         1 6HJ       0.158500
      2 C5           0.7240    -1.8740    -0.1120 ca         1 6HJ      -0.382900
      3 C6           1.2260    -3.1950    -0.1220 ca         1 6HJ       0.451900
      4 N1           0.3740    -4.2050    -0.3190 nb         1 6HJ      -0.311000
      5 N3          -1.4930    -2.7520    -0.6250 nb         1 6HJ      -0.233000
      6 CBD         -6.2170    -1.0730     1.8510 c2         1 6HJ      -0.237000
      7 CBB         -5.1880    -0.2400     1.7450 ce         1 6HJ      -0.293200
      8 OBC         -6.2540     1.2510     0.2590 o          1 6HJ      -0.603100
      9 NAW         -4.0060     1.4150     0.4020 n          1 6HJ      -0.399800
     10 CAX         -2.7100     0.8090     0.6340 c6         1 6HJ       0.087000
     11 CAV         -3.9550     2.4820    -0.5870 c6         1 6HJ       0.086000
     12 CAU         -3.4690     1.9450    -1.9270 c6         1 6HJ      -0.101400
     13 CAT         -2.1230     1.2440    -1.7790 c6         1 6HJ      -0.085400
     14 CAS         -2.1860     0.1980    -0.6710 c6         1 6HJ       0.081300
     15 NAG         -0.9050    -0.4330    -0.4460 na         1 6HJ      -0.021100
     16 NAH          0.1850     0.2980    -0.1610 nc         1 6HJ      -0.529100
     17 C2          -0.9100    -3.9300    -0.5440 ca         1 6HJ       0.195900
     18 NAY          2.5150    -3.4960     0.0620 nv         1 6HJ      -1.065900
     19 CAI          1.1820    -0.5340     0.0460 cd         1 6HJ       0.485200
     20 CAJ          2.5040    -0.0290     0.3730 cd         1 6HJ      -0.174800
     21 CAK          3.1100     1.1700    -0.1310 ca         1 6HJ      -0.073800
     22 CAO          2.7150     2.1520    -1.0460 ca         1 6HJ      -0.049000
     23 CAP          3.5830     3.1890    -1.3230 ca         1 6HJ      -0.140000
     24 CAQ          4.8420     3.2690    -0.7050 ca         1 6HJ      -0.090000
     25 CAR          5.2580     2.3130     0.2010 ca         1 6HJ      -0.128000
     26 CAL          4.3780     1.2670     0.4770 ca         1 6HJ      -0.053200
     27 NAM          4.5290     0.1960     1.3140 na         1 6HJ      -0.082700
     28 CAZ          5.6840    -0.0570     2.1420 c3         1 6HJ       0.063900
     29 CAN          3.4070    -0.5710     1.2530 cc         1 6HJ      -0.149100
     30 H1          -7.0800    -1.0080     1.2020 ha         1 6HJ       0.174500
     31 H2          -6.2220    -1.8580     2.5940 ha         1 6HJ       0.174500
     32 H4          -4.3490    -0.3480     2.4200 ha         1 6HJ       0.183000
     33 H6          -2.0190     1.5820     0.9830 h1         1 6HJ       0.067200
     34 H7          -2.7570     0.0460     1.4050 h1         1 6HJ       0.067200
     35 H8          -4.9340     2.9430    -0.6770 h1         1 6HJ       0.064700
     36 H9          -3.2630     3.2460    -0.2180 h1         1 6HJ       0.064700
     37 H10         -4.2140     1.2550    -2.3330 hc         1 6HJ       0.054700
     38 H11         -3.3800     2.7690    -2.6380 hc         1 6HJ       0.054700
     39 H12         -1.8340     0.7690    -2.7180 hc         1 6HJ       0.058700
     40 H13         -1.3510     1.9800    -1.5390 hc         1 6HJ       0.058700
     41 H14         -2.8620    -0.6070    -0.9690 h1         1 6HJ       0.091700
     42 H15         -1.5500    -4.7930    -0.6920 h5         1 6HJ       0.046100
     43 H16          3.2240    -2.7860     0.0040 hn         1 6HJ       0.498000
     44 H17          2.8110    -4.4490    -0.0770 hn         1 6HJ       0.498000
     45 H18          1.7430     2.1030    -1.5190 ha         1 6HJ       0.127000
     46 H19          3.2910     3.9590    -2.0260 ha         1 6HJ       0.112000
     47 H20          5.5000     4.0940    -0.9450 ha         1 6HJ       0.111000
     48 H21          6.2310     2.3790     0.6710 ha         1 6HJ       0.113000
     49 H22          5.8020     0.7200     2.8970 h1         1 6HJ       0.051367
     50 H23          5.5600    -1.0120     2.6440 h1         1 6HJ       0.051367
     51 H24          6.5880    -0.1010     1.5370 h1         1 6HJ       0.051367
     52 H25          3.3170    -1.4450     1.8810 h4         1 6HJ       0.217000
     53 CBA         -5.1960     0.8560     0.7350 c          1 6HJ       0.604300
@<TRIPOS>BOND
     1     1     2 ar  
     2     1     5 ar  
     3     1    15 1   
     4     2     3 ar  
     5     2    19 1   
     6     3     4 ar  
     7     3    18 1   
     8     4    17 ar  
     9     5    17 ar  
    10     6     7 2   
    11     6    30 1   
    12     6    31 1   
    13     7    32 1   
    14     7    53 1   
    15     8    53 2   
    16     9    10 1   
    17     9    11 1   
    18     9    53 1   
    19    10    14 1   
    20    10    33 1   
    21    10    34 1   
    22    11    12 1   
    23    11    35 1   
    24    11    36 1   
    25    12    13 1   
    26    12    37 1   
    27    12    38 1   
    28    13    14 1   
    29    13    39 1   
    30    13    40 1   
    31    14    15 1   
    32    14    41 1   
    33    15    16 1   
    34    16    19 2   
    35    17    42 1   
    36    18    43 1   
    37    18    44 1   
    38    19    20 1   
    39    20    21 1   
    40    20    29 2   
    41    21    22 ar  
    42    21    26 ar  
    43    22    23 ar  
    44    22    45 1   
    45    23    24 ar  
    46    23    46 1   
    47    24    25 ar  
    48    24    47 1   
    49    25    26 ar  
    50    25    48 1   
    51    26    27 1   
    52    27    28 1   
    53    27    29 1   
    54    28    49 1   
    55    28    50 1   
    56    28    51 1   
    57    29    52 1   
@<TRIPOS>SUBSTRUCTURE
     1 6HJ         1 TEMP              0 ****  ****    0 ROOT
