@<TRIPOS>MOLECULE
6HK
   45    48     1     0     0
SMALL
abcg2


@<TRIPOS>ATOM
      1 O2           0.3200    -3.6600    -0.3610 o          1 6HK      -0.555000
      2 C13          0.1000    -2.4710    -0.1840 c          1 6HK       0.595600
      3 N2          -1.1630    -2.0510     0.0810 ns         1 6HK      -0.397100
      4 C14         -1.6980    -0.7550     0.0580 ca         1 6HK       0.062600
      5 C6          -1.0470     0.3110     0.6710 ca         1 6HK       0.252000
      6 C5          -1.6670     1.5560     0.6930 ca         1 6HK      -0.132000
      7 C4          -2.9260     1.7340     0.1420 ca         1 6HK      -0.084000
      8 C15         -2.9500    -0.5610    -0.5150 ca         1 6HK      -0.116000
      9 C3          -3.5820     0.6740    -0.4720 ca         1 6HK      -0.066300
     10 C2          -4.9460     0.8470    -1.0680 c3         1 6HK      -0.092100
     11 C1          -6.0490     0.6110    -0.0620 c          1 6HK       0.587100
     12 O3          -7.2410     0.7480    -0.6250 os         1 6HK      -0.448100
     13 C20         -8.3890     0.5480     0.2000 c3         1 6HK       0.151900
     14 O1          -5.8830     0.3350     1.0980 o          1 6HK      -0.472000
     15 C12          1.2140    -1.4890    -0.2480 ca         1 6HK      -0.175600
     16 C7           1.2780    -0.3140     0.5110 ca         1 6HK       0.319000
     17 N1           0.2010     0.1210     1.2830 na         1 6HK      -0.933000
     18 C11          2.3290    -1.8570    -1.0010 ca         1 6HK      -0.032000
     19 C10          3.4860    -1.1070    -1.0070 ca         1 6HK      -0.149000
     20 C9           3.5770     0.0350    -0.2050 ca         1 6HK       0.053000
     21 C8           2.4650     0.4160     0.5400 ca         1 6HK      -0.168000
     22 C16          4.7670     0.8760    -0.1640 cc         1 6HK      -0.175000
     23 N4           6.0670     0.4300    -0.1960 na         1 6HK      -0.152500
     24 C19          6.5480    -0.9350    -0.2110 c3         1 6HK       0.055900
     25 C18          6.8570     1.5210    -0.1430 cc         1 6HK       0.396400
     26 N3           6.1670     2.6340    -0.0870 nd         1 6HK      -0.670000
     27 C17          4.8660     2.2450    -0.0960 cd         1 6HK       0.254900
     28 H9          -1.8450    -2.7970     0.0630 hn         1 6HK       0.323500
     29 H4          -1.1600     2.3910     1.1610 ha         1 6HK       0.118000
     30 H3          -3.3900     2.7120     0.1820 ha         1 6HK       0.119000
     31 H10         -3.4430    -1.4000    -0.9910 ha         1 6HK       0.119000
     32 H1          -5.0670     1.8540    -1.4780 hc         1 6HK       0.080200
     33 H2          -5.0950     0.1620    -1.9070 hc         1 6HK       0.080200
     34 H203        -9.2500     0.6690    -0.4520 h1         1 6HK       0.049367
     35 H202        -8.4020    -0.4520     0.6310 h1         1 6HK       0.049367
     36 H201        -8.4370     1.2850     1.0010 h1         1 6HK       0.049367
     37 H5           0.4500     0.8940     1.8830 hn         1 6HK       0.463000
     38 H8           2.2840    -2.7570    -1.6010 ha         1 6HK       0.136000
     39 H7           4.3050    -1.4090    -1.6440 ha         1 6HK       0.119000
     40 H6           2.5210     1.2960     1.1680 ha         1 6HK       0.121000
     41 H193         6.5160    -1.3580    -1.2130 h1         1 6HK       0.056700
     42 H191         7.5790    -0.9460     0.1340 h1         1 6HK       0.056700
     43 H192         5.9540    -1.5530     0.4570 h1         1 6HK       0.056700
     44 H12          7.9340     1.4420    -0.1370 h5         1 6HK       0.055100
     45 H11          4.0540     2.9560    -0.0760 h4         1 6HK       0.038100
@<TRIPOS>BOND
     1     1     2 2   
     2     2     3 1   
     3     2    15 1   
     4     3     4 1   
     5     3    28 1   
     6     4     5 ar  
     7     4     8 ar  
     8     5     6 ar  
     9     5    17 1   
    10     6     7 ar  
    11     6    29 1   
    12     7     9 ar  
    13     7    30 1   
    14     8     9 ar  
    15     8    31 1   
    16     9    10 1   
    17    10    11 1   
    18    10    32 1   
    19    10    33 1   
    20    11    12 1   
    21    11    14 2   
    22    12    13 1   
    23    13    34 1   
    24    13    35 1   
    25    13    36 1   
    26    15    16 ar  
    27    15    18 ar  
    28    16    17 1   
    29    16    21 ar  
    30    17    37 1   
    31    18    19 ar  
    32    18    38 1   
    33    19    20 ar  
    34    19    39 1   
    35    20    21 ar  
    36    20    22 1   
    37    21    40 1   
    38    22    23 1   
    39    22    27 2   
    40    23    24 1   
    41    23    25 1   
    42    24    41 1   
    43    24    42 1   
    44    24    43 1   
    45    25    26 2   
    46    25    44 1   
    47    26    27 1   
    48    27    45 1   
@<TRIPOS>SUBSTRUCTURE
     1 6HK         1 TEMP              0 ****  ****    0 ROOT
