@<TRIPOS>MOLECULE
6HK
   45    48     1     0     0
SMALL
No Charge or Current Charge


@<TRIPOS>ATOM
      1 O2          -0.0540    -3.6700    -0.4380 o          1 6HK      -0.555000
      2 C13         -0.1440    -2.4570    -0.3030 c          1 6HK       0.595600
      3 N2          -1.3980    -1.8910    -0.2540 ns         1 6HK      -0.397100
      4 C14         -1.8240    -0.5530    -0.0740 ca         1 6HK       0.062600
      5 C6          -1.0700     0.3930     0.6580 ca         1 6HK       0.252000
      6 C5          -1.5580     1.6990     0.8220 ca         1 6HK      -0.132000
      7 C4          -2.7890     2.0740     0.2600 ca         1 6HK      -0.084000
      8 C15         -3.0660    -0.1750    -0.6180 ca         1 6HK      -0.116000
      9 C3          -3.5500     1.1380    -0.4620 ca         1 6HK      -0.066300
     10 C2          -4.8950     1.5340    -1.0630 c3         1 6HK      -0.092100
     11 C1          -6.0400     1.1750    -0.1130 c          1 6HK       0.587100
     12 O3          -6.7130     0.0520    -0.5250 os         1 6HK      -0.448100
     13 C20         -7.8140    -0.4100     0.2810 c3         1 6HK       0.151900
     14 O1          -6.3130     1.8140     0.8940 o          1 6HK      -0.472000
     15 C12          1.0890    -1.5930    -0.2440 ca         1 6HK      -0.175600
     16 C7           1.1610    -0.3940     0.4880 ca         1 6HK       0.319000
     17 N1           0.1210     0.0500     1.2770 na         1 6HK      -0.933000
     18 C11          2.2410    -2.0280    -0.9370 ca         1 6HK      -0.032000
     19 C10          3.4200    -1.2680    -0.9220 ca         1 6HK      -0.149000
     20 C9           3.4860    -0.0640    -0.1990 ca         1 6HK       0.053000
     21 C8           2.3450     0.3580     0.5050 ca         1 6HK      -0.168000
     22 C16          4.7090     0.7430    -0.1750 cc         1 6HK      -0.175000
     23 N4           6.0350     0.3620    -0.2140 na         1 6HK      -0.152500
     24 C19          6.5850    -1.0020    -0.1750 c3         1 6HK       0.055900
     25 C18          6.7730     1.5300    -0.2220 cc         1 6HK       0.396400
     26 N3           5.9850     2.6000    -0.1960 nd         1 6HK      -0.670000
     27 C17          4.6910     2.1140    -0.1690 cd         1 6HK       0.254900
     28 H9          -2.1440    -2.5640    -0.3690 hn         1 6HK       0.323500
     29 H4          -0.9830     2.4250     1.3910 ha         1 6HK       0.118000
     30 H3          -3.1540     3.0910     0.3960 ha         1 6HK       0.119000
     31 H10         -3.6550    -0.9030    -1.1700 ha         1 6HK       0.119000
     32 H1          -4.9190     2.6150    -1.2410 hc         1 6HK       0.080200
     33 H2          -5.0350     1.0080    -2.0140 hc         1 6HK       0.080200
     34 H203        -8.2580    -1.3110    -0.1620 h1         1 6HK       0.049367
     35 H202        -7.4790    -0.6600     1.2960 h1         1 6HK       0.049367
     36 H201        -8.5970     0.3560     0.3510 h1         1 6HK       0.049367
     37 H5           0.2770     0.2690     2.2570 hn         1 6HK       0.463000
     38 H8           2.2180    -2.9550    -1.5090 ha         1 6HK       0.136000
     39 H7           4.2770    -1.6140    -1.4930 ha         1 6HK       0.119000
     40 H6           2.3800     1.2730     1.0900 ha         1 6HK       0.121000
     41 H193         6.6530    -1.4020    -1.1940 h1         1 6HK       0.056700
     42 H191         7.5880    -0.9850     0.2710 h1         1 6HK       0.056700
     43 H192         5.9370    -1.6480     0.4300 h1         1 6HK       0.056700
     44 H12          7.8570     1.5310    -0.2400 h5         1 6HK       0.055100
     45 H11          3.8330     2.7760    -0.1600 h4         1 6HK       0.038100
@<TRIPOS>BOND
     1     1     2 2   
     2     2     3 1   
     3     2    15 1   
     4     3     4 1   
     5     3    28 1   
     6     4     5 ar  
     7     4     8 ar  
     8     5     6 ar  
     9     5    17 1   
    10     6     7 ar  
    11     6    29 1   
    12     7     9 ar  
    13     7    30 1   
    14     8     9 ar  
    15     8    31 1   
    16     9    10 1   
    17    10    11 1   
    18    10    32 1   
    19    10    33 1   
    20    11    12 1   
    21    11    14 2   
    22    12    13 1   
    23    13    34 1   
    24    13    35 1   
    25    13    36 1   
    26    15    16 ar  
    27    15    18 ar  
    28    16    17 1   
    29    16    21 ar  
    30    17    37 1   
    31    18    19 ar  
    32    18    38 1   
    33    19    20 ar  
    34    19    39 1   
    35    20    21 ar  
    36    20    22 1   
    37    21    40 1   
    38    22    23 1   
    39    22    27 2   
    40    23    24 1   
    41    23    25 1   
    42    24    41 1   
    43    24    42 1   
    44    24    43 1   
    45    25    26 2   
    46    25    44 1   
    47    26    27 1   
    48    27    45 1   
@<TRIPOS>SUBSTRUCTURE
     1 6HK         1 TEMP              0 ****  ****    0 ROOT
