@<TRIPOS>MOLECULE
6HL
   52    56     1     0     0
SMALL
bcc


@<TRIPOS>ATOM
      1 C4          -0.2980    -1.8080    -0.5170 ca         1 6HL       0.492800
      2 C5           1.0530    -1.8110    -0.1650 ca         1 6HL      -0.516500
      3 C6           1.7170    -3.0530    -0.3010 ca         1 6HL       0.789200
      4 N1           1.0100    -4.1140    -0.6990 nb         1 6HL      -0.839000
      5 N3          -1.0100    -2.8620    -0.9250 nb         1 6HL      -0.757000
      6 CBC         -7.5080     0.5370     1.1950 c2         1 6HL      -0.135000
      7 CBB         -6.4260     0.8700     0.5010 ce         1 6HL      -0.246200
      8 OBA         -4.9650    -0.4870     1.7590 o          1 6HL      -0.602100
      9 NAW         -3.9940     1.0310     0.4010 n          1 6HL      -0.476800
     10 CAX         -2.6610     0.5290     0.6730 c6         1 6HL       0.080000
     11 CAV         -3.9960     2.1190    -0.5660 c6         1 6HL       0.103000
     12 CAU         -3.4380     1.6390    -1.8980 c6         1 6HL      -0.097400
     13 CAT         -2.0450     1.0450    -1.7170 c6         1 6HL      -0.088400
     14 CAY         -2.0560    -0.0190    -0.6230 c6         1 6HL       0.057000
     15 NAM         -0.7290    -0.5400    -0.3750 na         1 6HL       0.010200
     16 NAN          0.2540     0.2660     0.0510 nc         1 6HL      -0.520100
     17 C2          -0.2830    -3.9600    -0.9770 ca         1 6HL       0.725900
     18 NBD          3.0150    -3.2200    -0.0530 nv         1 6HL      -0.958500
     19 CAO          1.3350    -0.4650     0.1900 cd         1 6HL       0.433500
     20 CAC          2.5990     0.1040     0.6840 ca         1 6HL      -0.086900
     21 CAD          3.2160     1.2240     0.0520 ca         1 6HL      -0.014000
     22 CAG          2.6910     1.8430    -1.1090 ca         1 6HL      -0.105000
     23 CAH          3.3240     2.9120    -1.6820 ca         1 6HL      -0.128000
     24 CAI          4.5140     3.4240    -1.1290 ca         1 6HL      -0.121000
     25 CAJ          5.0530     2.8430    -0.0150 ca         1 6HL      -0.120000
     26 CAE          4.4270     1.7320     0.5980 ca         1 6HL      -0.040000
     27 CAF          4.9950     1.1160     1.7370 ca         1 6HL      -0.108000
     28 CAA          4.3920     0.0360     2.3170 ca         1 6HL      -0.133000
     29 CAB          3.1880    -0.4670     1.7870 ca         1 6HL      -0.125000
     30 H1          -8.4920     0.8510     0.8740 ha         1 6HL       0.125000
     31 H2          -7.4540    -0.0500     2.1030 ha         1 6HL       0.125000
     32 H4          -6.5430     1.4560    -0.4000 ha         1 6HL       0.128000
     33 H6          -2.0420     1.3470     1.0520 h1         1 6HL       0.078700
     34 H7          -2.7030    -0.2440     1.4350 h1         1 6HL       0.078700
     35 H8          -4.9890     2.5410    -0.6830 h1         1 6HL       0.052700
     36 H9          -3.3670     2.9220    -0.1680 h1         1 6HL       0.052700
     37 H10         -4.1160     0.8940    -2.3260 hc         1 6HL       0.052200
     38 H11         -3.3980     2.4750    -2.5970 hc         1 6HL       0.052200
     39 H12         -1.6880     0.6110    -2.6530 hc         1 6HL       0.058200
     40 H13         -1.3450     1.8380    -1.4390 hc         1 6HL       0.058200
     41 H14         -2.6530    -0.8740    -0.9500 h1         1 6HL       0.095700
     42 H15         -0.8000    -4.8610    -1.2910 h5         1 6HL       0.047100
     43 H16          3.6160    -2.4480     0.1790 hn         1 6HL       0.450300
     44 H17          3.4410    -4.1170    -0.2160 hn         1 6HL       0.450300
     45 H18          1.7770     1.4710    -1.5500 ha         1 6HL       0.144000
     46 H19          2.9070     3.3690    -2.5700 ha         1 6HL       0.131000
     47 H20          5.0020     4.2720    -1.5920 ha         1 6HL       0.132000
     48 H21          5.9730     3.2230     0.4120 ha         1 6HL       0.131000
     49 H22          5.9180     1.5120     2.1420 ha         1 6HL       0.133000
     50 H23          4.8270    -0.4350     3.1880 ha         1 6HL       0.135000
     51 H24          2.7090    -1.3050     2.2790 ha         1 6HL       0.140000
     52 CAZ         -5.0750     0.4160     0.9360 c          1 6HL       0.676300
@<TRIPOS>BOND
     1     1     2 ar  
     2     1     5 ar  
     3     1    15 1   
     4     2     3 ar  
     5     2    19 1   
     6     3     4 ar  
     7     3    18 1   
     8     4    17 ar  
     9     5    17 ar  
    10     6     7 2   
    11     6    30 1   
    12     6    31 1   
    13     7    32 1   
    14     7    52 1   
    15     8    52 2   
    16     9    10 1   
    17     9    11 1   
    18     9    52 1   
    19    10    14 1   
    20    10    33 1   
    21    10    34 1   
    22    11    12 1   
    23    11    35 1   
    24    11    36 1   
    25    12    13 1   
    26    12    37 1   
    27    12    38 1   
    28    13    14 1   
    29    13    39 1   
    30    13    40 1   
    31    14    15 1   
    32    14    41 1   
    33    15    16 1   
    34    16    19 2   
    35    17    42 1   
    36    18    43 1   
    37    18    44 1   
    38    19    20 1   
    39    20    21 ar  
    40    20    29 ar  
    41    21    22 ar  
    42    21    26 ar  
    43    22    23 ar  
    44    22    45 1   
    45    23    24 ar  
    46    23    46 1   
    47    24    25 ar  
    48    24    47 1   
    49    25    26 ar  
    50    25    48 1   
    51    26    27 ar  
    52    27    28 ar  
    53    27    49 1   
    54    28    29 ar  
    55    28    50 1   
    56    29    51 1   
@<TRIPOS>SUBSTRUCTURE
     1 6HL         1 TEMP              0 ****  ****    0 ROOT
