@<TRIPOS>MOLECULE
6HL
   52    56     1     0     0
SMALL
No Charge or Current Charge


@<TRIPOS>ATOM
      1 C4          -0.2370    -1.6970    -0.6140 ca         1 6HL       0.164500
      2 C5           1.0850    -1.6720    -0.2810 ca         1 6HL      -0.385900
      3 C6           1.8850    -2.7780    -0.5320 ca         1 6HL       0.460900
      4 N1           1.3650    -3.8820    -1.0850 nb         1 6HL      -0.313000
      5 N3          -0.7960    -2.7900    -1.1720 nb         1 6HL      -0.231000
      6 CBC         -7.7360     0.8820     1.5080 c2         1 6HL      -0.235000
      7 CBB         -6.6690     0.8120     0.6730 ce         1 6HL      -0.296200
      8 OBA         -5.0740    -0.0910     2.1610 o          1 6HL      -0.602100
      9 NAW         -4.1790     1.0730     0.4010 n          1 6HL      -0.409800
     10 CAX         -2.7690     0.6810     0.6850 c6         1 6HL       0.080000
     11 CAV         -4.2920     1.9600    -0.7870 c6         1 6HL       0.103000
     12 CAU         -3.7530     1.2400    -2.0450 c6         1 6HL      -0.097400
     13 CAT         -2.2900     0.7720    -1.8240 c6         1 6HL      -0.088400
     14 CAY         -2.1630    -0.0770    -0.5280 c6         1 6HL       0.086300
     15 NAM         -0.7490    -0.4490    -0.2800 na         1 6HL      -0.019100
     16 NAN          0.2350     0.3880     0.2600 nc         1 6HL      -0.520100
     17 C2           0.0410    -3.8360    -1.3760 ca         1 6HL       0.199900
     18 NBD          3.2060    -2.8180    -0.2630 nv         1 6HL      -1.068900
     19 CAO          1.3410    -0.3640     0.2590 cd         1 6HL       0.433500
     20 CAC          2.6340     0.1090     0.7830 ca         1 6HL      -0.086900
     21 CAD          3.3600     1.1600     0.1660 ca         1 6HL      -0.014000
     22 CAG          2.8940     1.7940    -1.0100 ca         1 6HL      -0.087000
     23 CAH          3.6350     2.8310    -1.6030 ca         1 6HL      -0.110000
     24 CAI          4.8490     3.2460    -1.0350 ca         1 6HL      -0.103000
     25 CAJ          5.3270     2.6200     0.1260 ca         1 6HL      -0.102000
     26 CAE          4.5920     1.5800     0.7260 ca         1 6HL      -0.040000
     27 CAF          5.0930     0.9570     1.8840 ca         1 6HL      -0.090000
     28 CAA          4.3750    -0.0860     2.4880 ca         1 6HL      -0.115000
     29 CAB          3.1540    -0.5060     1.9400 ca         1 6HL      -0.107000
     30 H1          -8.7370     1.1170     1.1430 ha         1 6HL       0.175000
     31 H2          -7.6420     0.7060     2.5820 ha         1 6HL       0.175000
     32 H4          -6.8090     1.0280    -0.3820 ha         1 6HL       0.178000
     33 H6          -2.1800     1.5860     0.8900 h1         1 6HL       0.078700
     34 H7          -2.7050     0.0440     1.5780 h1         1 6HL       0.078700
     35 H8          -5.3160     2.3110    -0.9560 h1         1 6HL       0.052700
     36 H9          -3.6880     2.8620    -0.6080 h1         1 6HL       0.052700
     37 H10         -4.3920     0.3750    -2.2760 hc         1 6HL       0.052200
     38 H11         -3.8060     1.9120    -2.9130 hc         1 6HL       0.052200
     39 H12         -1.9480     0.1890    -2.6900 hc         1 6HL       0.058200
     40 H13         -1.6320     1.6500    -1.7580 hc         1 6HL       0.058200
     41 H14         -2.7440    -0.9990    -0.6620 h1         1 6HL       0.095700
     42 H15         -0.3920    -4.7280    -1.8250 h5         1 6HL       0.047100
     43 H16          3.6840    -1.9520    -0.0340 hn         1 6HL       0.505500
     44 H17          3.7630    -3.5630    -0.6740 hn         1 6HL       0.505500
     45 H18          1.9620     1.4920    -1.4800 ha         1 6HL       0.126000
     46 H19          3.2660     3.3120    -2.5070 ha         1 6HL       0.113000
     47 H20          5.4200     4.0490    -1.4970 ha         1 6HL       0.114000
     48 H21          6.2720     2.9440     0.5580 ha         1 6HL       0.113000
     49 H22          6.0390     1.2770     2.3150 ha         1 6HL       0.115000
     50 H23          4.7650    -0.5670     3.3830 ha         1 6HL       0.117000
     51 H24          2.6010    -1.3110     2.4210 ha         1 6HL       0.122000
     52 CAZ         -5.2680     0.5360     1.1280 c          1 6HL       0.609300
@<TRIPOS>BOND
     1     1     2 ar  
     2     1     5 ar  
     3     1    15 1   
     4     2     3 ar  
     5     2    19 1   
     6     3     4 ar  
     7     3    18 1   
     8     4    17 ar  
     9     5    17 ar  
    10     6     7 2   
    11     6    30 1   
    12     6    31 1   
    13     7    32 1   
    14     7    52 1   
    15     8    52 2   
    16     9    10 1   
    17     9    11 1   
    18     9    52 1   
    19    10    14 1   
    20    10    33 1   
    21    10    34 1   
    22    11    12 1   
    23    11    35 1   
    24    11    36 1   
    25    12    13 1   
    26    12    37 1   
    27    12    38 1   
    28    13    14 1   
    29    13    39 1   
    30    13    40 1   
    31    14    15 1   
    32    14    41 1   
    33    15    16 1   
    34    16    19 2   
    35    17    42 1   
    36    18    43 1   
    37    18    44 1   
    38    19    20 1   
    39    20    21 ar  
    40    20    29 ar  
    41    21    22 ar  
    42    21    26 ar  
    43    22    23 ar  
    44    22    45 1   
    45    23    24 ar  
    46    23    46 1   
    47    24    25 ar  
    48    24    47 1   
    49    25    26 ar  
    50    25    48 1   
    51    26    27 ar  
    52    27    28 ar  
    53    27    49 1   
    54    28    29 ar  
    55    28    50 1   
    56    29    51 1   
@<TRIPOS>SUBSTRUCTURE
     1 6HL         1 TEMP              0 ****  ****    0 ROOT
