@<TRIPOS>MOLECULE
6HM
   32    33     1     0     0
SMALL
No Charge or Current Charge


@<TRIPOS>ATOM
      1 C10          0.2790    -3.7730    -0.4370 ca         1 6HM      -0.119000
      2 C13         -0.8470    -0.1790    -1.1370 c3         1 6HM      -0.008100
      3 C15         -2.3010     1.7790    -0.3460 c          1 6HM       0.741000
      4 C01          3.1640     2.7280     0.3650 ca         1 6HM      -0.131000
      5 C02          2.8190     1.9550     1.4850 ca         1 6HM      -0.121000
      6 C03          2.2240     0.6930     1.3120 ca         1 6HM      -0.085500
      7 C04          1.9560     0.1870     0.0180 cp         1 6HM       0.015000
      8 C05          2.3240     0.9750    -1.0990 ca         1 6HM      -0.085500
      9 C06          2.9190     2.2370    -0.9280 ca         1 6HM      -0.121000
     10 C07          1.3440    -1.1630    -0.1540 cp         1 6HM      -0.065000
     11 C08          2.0770    -2.3020     0.2580 ca         1 6HM      -0.115000
     12 C09          1.5530    -3.5950     0.1160 ca         1 6HM      -0.164000
     13 C11         -0.4720    -2.6580    -0.8420 ca         1 6HM      -0.094000
     14 C12          0.0410    -1.3510    -0.7060 ca         1 6HM       0.016700
     15 C14         -1.5580     0.5140     0.0580 c3         1 6HM      -0.305700
     16 O16         -3.0870     1.7460    -1.2810 o          1 6HM      -0.770250
     17 O17         -2.0190     2.8150     0.2380 o          1 6HM      -0.770250
     18 C18         -2.5570    -0.3840     0.7760 c          1 6HM       0.741000
     19 O19         -2.4150    -0.5430     1.9790 o          1 6HM      -0.770250
     20 O20         -3.4270    -0.9550     0.1350 o          1 6HM      -0.770250
     21 H1          -0.1320    -4.7740    -0.5460 ha         1 6HM       0.082000
     22 H2          -0.2550     0.5680    -1.6760 hc         1 6HM       0.043200
     23 H3          -1.5970    -0.5210    -1.8600 hc         1 6HM       0.043200
     24 H4           3.6250     3.7030     0.4980 ha         1 6HM       0.084000
     25 H5           3.0120     2.3310     2.4870 ha         1 6HM       0.090500
     26 H6           1.9600     0.0990     2.1840 ha         1 6HM       0.117500
     27 H7           2.1490     0.5960    -2.1040 ha         1 6HM       0.117500
     28 H8           3.1930     2.8310    -1.7970 ha         1 6HM       0.090500
     29 H9           3.0680    -2.1730     0.6860 ha         1 6HM       0.079000
     30 H10          2.1350    -4.4560     0.4350 ha         1 6HM       0.074000
     31 H11         -1.4670    -2.8100    -1.2560 ha         1 6HM       0.138000
     32 H12         -0.8060     0.8120     0.8000 hc         1 6HM       0.022700
@<TRIPOS>BOND
     1     1    12 ar  
     2     1    13 ar  
     3     1    21 1   
     4     2    14 1   
     5     2    15 1   
     6     2    22 1   
     7     2    23 1   
     8     3    15 1   
     9     3    16 1   
    10     3    17 1   
    11     4     5 ar  
    12     4     9 ar  
    13     4    24 1   
    14     5     6 ar  
    15     5    25 1   
    16     6     7 ar  
    17     6    26 1   
    18     7     8 ar  
    19     7    10 1   
    20     8     9 ar  
    21     8    27 1   
    22     9    28 1   
    23    10    11 ar  
    24    10    14 ar  
    25    11    12 ar  
    26    11    29 1   
    27    12    30 1   
    28    13    14 ar  
    29    13    31 1   
    30    15    18 1   
    31    15    32 1   
    32    18    19 1   
    33    18    20 1   
@<TRIPOS>SUBSTRUCTURE
     1 6HM         1 TEMP              0 ****  ****    0 ROOT
