@<TRIPOS>MOLECULE
6HM
   32    33     1     0     0
SMALL
abcg2


@<TRIPOS>ATOM
      1 C10          0.2400    -3.7220    -0.4100 ca         1 6HM      -0.119000
      2 C13         -0.8280    -0.1520    -1.1340 c3         1 6HM      -0.008100
      3 C15         -2.3280     1.7700    -0.3440 c          1 6HM       0.741000
      4 C01          3.1630     2.6720     0.3200 ca         1 6HM      -0.131000
      5 C02          2.7950     1.9230     1.4300 ca         1 6HM      -0.121000
      6 C03          2.1860     0.6860     1.2650 ca         1 6HM      -0.085500
      7 C04          1.9310     0.1800    -0.0090 cp         1 6HM       0.015000
      8 C05          2.3110     0.9380    -1.1160 ca         1 6HM      -0.085500
      9 C06          2.9210     2.1740    -0.9540 ca         1 6HM      -0.121000
     10 C07          1.3070    -1.1570    -0.1680 cp         1 6HM      -0.065000
     11 C08          2.0240    -2.2740     0.2600 ca         1 6HM      -0.115000
     12 C09          1.5020    -3.5540     0.1400 ca         1 6HM      -0.164000
     13 C11         -0.4830    -2.6130    -0.8260 ca         1 6HM      -0.094000
     14 C12          0.0270    -1.3200    -0.7200 ca         1 6HM       0.016700
     15 C14         -1.4790     0.5470     0.0590 c3         1 6HM      -0.305700
     16 O16         -2.4050     2.0720    -1.5520 o          1 6HM      -0.770250
     17 O17         -2.8860     2.3740     0.5980 o          1 6HM      -0.770250
     18 C18         -2.3860    -0.4110     0.8520 c          1 6HM       0.741000
     19 O19         -2.1940    -0.5280     2.0780 o          1 6HM      -0.770250
     20 O20         -3.2730    -0.9940     0.1900 o          1 6HM      -0.770250
     21 H1          -0.1830    -4.7130    -0.5130 ha         1 6HM       0.082000
     22 H2          -0.2380     0.5740    -1.6930 hc         1 6HM       0.043200
     23 H3          -1.6070    -0.5060    -1.8100 hc         1 6HM       0.043200
     24 H4           3.6390     3.6360     0.4480 ha         1 6HM       0.084000
     25 H5           2.9790     2.3020     2.4270 ha         1 6HM       0.090500
     26 H6           1.8950     0.1110     2.1350 ha         1 6HM       0.117500
     27 H7           2.1370     0.5530    -2.1130 ha         1 6HM       0.117500
     28 H8           3.2100     2.7470    -1.8250 ha         1 6HM       0.090500
     29 H9           3.0130    -2.1350     0.6820 ha         1 6HM       0.079000
     30 H10          2.0790    -4.4090     0.4680 ha         1 6HM       0.074000
     31 H11         -1.4780    -2.7470    -1.2320 ha         1 6HM       0.138000
     32 H12         -0.6880     0.9060     0.7260 hc         1 6HM       0.022700
@<TRIPOS>BOND
     1     1    12 ar  
     2     1    13 ar  
     3     1    21 1   
     4     2    14 1   
     5     2    15 1   
     6     2    22 1   
     7     2    23 1   
     8     3    15 1   
     9     3    16 1   
    10     3    17 1   
    11     4     5 ar  
    12     4     9 ar  
    13     4    24 1   
    14     5     6 ar  
    15     5    25 1   
    16     6     7 ar  
    17     6    26 1   
    18     7     8 ar  
    19     7    10 1   
    20     8     9 ar  
    21     8    27 1   
    22     9    28 1   
    23    10    11 ar  
    24    10    14 ar  
    25    11    12 ar  
    26    11    29 1   
    27    12    30 1   
    28    13    14 ar  
    29    13    31 1   
    30    15    18 1   
    31    15    32 1   
    32    18    19 1   
    33    18    20 1   
@<TRIPOS>SUBSTRUCTURE
     1 6HM         1 TEMP              0 ****  ****    0 ROOT
