@<TRIPOS>MOLECULE
6HN
   23    22     1     0     0
SMALL
No Charge or Current Charge


@<TRIPOS>ATOM
      1 N1          16.9520   -15.9210    41.7060 no         1 6HN       0.579000
      2 N           22.5220   -12.0430    40.2750 n8         1 6HN      -1.007200
      3 CA          22.4200   -12.3890    41.7420 c3         1 6HN       0.020500
      4 C           23.4420   -13.4610    42.3280 c          1 6HN       0.716000
      5 OXT         23.8780   -13.2770    43.4580 o          1 6HN      -0.729500
      6 O           23.8520   -14.3580    41.6010 o          1 6HN      -0.729500
      7 CB          20.9560   -12.7400    42.1310 c3         1 6HN      -0.029400
      8 CG          20.4030   -14.0430    41.5020 c3         1 6HN      -0.070400
      9 CD          18.9450   -14.3410    41.9160 c3         1 6HN      -0.089400
     10 CE          18.3960   -15.6440    41.2860 c3         1 6HN      -0.035400
     11 O2          16.7690   -16.5890    42.7300 o          1 6HN      -0.420500
     12 O1          16.0490   -15.4530    41.0020 o          1 6HN      -0.420500
     13 HA          22.6560   -11.4500    42.2620 h1         1 6HN       0.000700
     14 HB          20.8960   -12.8210    43.2230 hc         1 6HN       0.018200
     15 HBA         20.3030   -11.9040    41.8500 hc         1 6HN       0.018200
     16 HG          20.4570   -13.9730    40.4080 hc         1 6HN       0.060700
     17 HGA         21.0370   -14.8880    41.7980 hc         1 6HN       0.060700
     18 HD          18.8860   -14.4160    43.0090 hc         1 6HN       0.055200
     19 HDA         18.3050   -13.5000    41.6180 hc         1 6HN       0.055200
     20 HE          18.9810   -16.5150    41.6040 h1         1 6HN       0.092200
     21 HEA         18.3920   -15.5850    40.1920 h1         1 6HN       0.092200
     22 H           21.9280   -11.2290    40.0750 hn         1 6HN       0.382000
     23 HN2         23.4730   -11.7120    40.0710 hn         1 6HN       0.382000
@<TRIPOS>BOND
     1     1    10 1   
     2     1    11 1   
     3     1    12 1   
     4     2     3 1   
     5     2    22 1   
     6     2    23 1   
     7     3     4 1   
     8     3     7 1   
     9     3    13 1   
    10     4     5 1   
    11     4     6 1   
    12     7     8 1   
    13     7    14 1   
    14     7    15 1   
    15     8     9 1   
    16     8    16 1   
    17     8    17 1   
    18     9    10 1   
    19     9    18 1   
    20     9    19 1   
    21    10    20 1   
    22    10    21 1   
@<TRIPOS>SUBSTRUCTURE
     1 6HN         1 TEMP              0 ****  ****    0 ROOT
