@<TRIPOS>MOLECULE
6HN
   23    22     1     0     0
SMALL
bcc


@<TRIPOS>ATOM
      1 N1          17.0590   -15.9300    41.6810 no         1 6HN       0.228300
      2 N           22.4290   -12.2450    40.2370 n8         1 6HN      -0.896800
      3 CA          22.3340   -12.3410    41.6860 c3         1 6HN       0.020500
      4 C           23.3490   -13.3630    42.2590 c          1 6HN       0.926600
      5 OXT         23.2300   -13.6260    43.4730 o          1 6HN      -0.834800
      6 O           24.2160   -13.8080    41.4810 o          1 6HN      -0.834800
      7 CB          20.8960   -12.6690    42.0900 c3         1 6HN      -0.029400
      8 CG          20.4120   -14.0350    41.6240 c3         1 6HN      -0.070400
      9 CD          18.9270   -14.2400    41.9100 c3         1 6HN      -0.089400
     10 CE          18.5060   -15.6220    41.4670 c3         1 6HN      -0.064700
     11 O2          16.6880   -17.0360    41.3690 o          1 6HN      -0.230500
     12 O1          16.3400   -15.0790    42.1430 o          1 6HN      -0.230500
     13 HA          22.5840   -11.3830    42.1740 h1         1 6HN       0.000700
     14 HB          20.8020   -12.5990    43.1760 hc         1 6HN       0.018200
     15 HBA         20.2350   -11.8970    41.6790 hc         1 6HN       0.018200
     16 HG          20.6000   -14.1410    40.5530 hc         1 6HN       0.060700
     17 HGA         20.9890   -14.8190    42.1240 hc         1 6HN       0.060700
     18 HD          18.7370   -14.1100    42.9780 hc         1 6HN       0.055200
     19 HDA         18.3470   -13.4800    41.3830 hc         1 6HN       0.055200
     20 HE          19.0470   -16.4040    42.0010 h1         1 6HN       0.092200
     21 HEA         18.6760   -15.7760    40.4010 h1         1 6HN       0.092200
     22 H           22.0920   -11.3420    39.9310 hn         1 6HN       0.326800
     23 HN2         23.4010   -12.3100    39.9660 hn         1 6HN       0.326800
@<TRIPOS>BOND
     1     1    10 1   
     2     1    11 1   
     3     1    12 1   
     4     2     3 1   
     5     2    22 1   
     6     2    23 1   
     7     3     4 1   
     8     3     7 1   
     9     3    13 1   
    10     4     5 1   
    11     4     6 1   
    12     7     8 1   
    13     7    14 1   
    14     7    15 1   
    15     8     9 1   
    16     8    16 1   
    17     8    17 1   
    18     9    10 1   
    19     9    18 1   
    20     9    19 1   
    21    10    20 1   
    22    10    21 1   
@<TRIPOS>SUBSTRUCTURE
     1 6HN         1 TEMP              0 ****  ****    0 ROOT
