@<TRIPOS>MOLECULE
6HO
   24    25     1     0     0
SMALL
abcg2


@<TRIPOS>ATOM
      1 C2           2.5080    -0.8140     0.7150 ca         1 6HO       0.165000
      2 C3           3.3220    -0.0940    -0.1360 ca         1 6HO      -0.139000
      3 C5           1.4550     1.3600    -0.5980 ca         1 6HO      -0.086000
      4 C6           0.6500     0.6030     0.2480 ca         1 6HO      -0.114600
      5 C7           1.1800    -0.4940     0.9190 ca         1 6HO      -0.130000
      6 C8          -0.7610     1.0420     0.4870 c          1 6HO       0.613700
      7 O9          -0.9940     2.1700     0.9030 o          1 6HO      -0.593100
      8 C11         -1.5650    -1.1190    -0.4780 c5         1 6HO       0.129200
      9 C12         -2.9820    -1.5080    -0.7550 c2         1 6HO      -0.233700
     10 C13         -3.8380    -0.6210    -0.2690 c2         1 6HO      -0.233700
     11 C14         -3.1340     0.5160     0.3970 c5         1 6HO       0.129200
     12 F1           3.0240    -1.8650     1.3710 f          1 6HO      -0.178000
     13 C4           2.7790     1.0000    -0.7970 ca         1 6HO      -0.090000
     14 N10         -1.7300     0.1550     0.2240 n          1 6HO      -0.411800
     15 H15          4.3560    -0.3780    -0.2790 ha         1 6HO       0.134000
     16 H17          1.0460     2.2210    -1.1100 ha         1 6HO       0.132000
     17 H18          0.5810    -1.0840     1.6020 ha         1 6HO       0.137000
     18 H19         -0.9770    -1.0040    -1.3930 h1         1 6HO       0.062450
     19 H21         -3.2310    -2.4190    -1.2810 ha         1 6HO       0.199000
     20 H22         -4.9150    -0.6760    -0.3290 ha         1 6HO       0.199000
     21 H23         -3.3610     1.4770    -0.0730 h1         1 6HO       0.062450
     22 H24         -3.3960     0.6090     1.4560 h1         1 6HO       0.062450
     23 H16          3.4000     1.5760    -1.4690 ha         1 6HO       0.122000
     24 H20         -1.0620    -1.8710     0.1360 h1         1 6HO       0.062450
@<TRIPOS>BOND
     1     1     2 ar  
     2     1     5 ar  
     3     1    12 1   
     4     2    13 ar  
     5     2    15 1   
     6     3     4 ar  
     7     3    13 ar  
     8     3    16 1   
     9     4     5 ar  
    10     4     6 1   
    11     5    17 1   
    12     6     7 2   
    13     6    14 1   
    14     8     9 1   
    15     8    14 1   
    16     8    18 1   
    17     8    24 1   
    18     9    10 2   
    19     9    19 1   
    20    10    11 1   
    21    10    20 1   
    22    11    14 1   
    23    11    21 1   
    24    11    22 1   
    25    13    23 1   
@<TRIPOS>SUBSTRUCTURE
     1 6HO         1 TEMP              0 ****  ****    0 ROOT
