@<TRIPOS>MOLECULE
6HO
   24    25     1     0     0
SMALL
No Charge or Current Charge


@<TRIPOS>ATOM
      1 C2           2.5210    -0.8770     0.6500 ca         1 6HO       0.165000
      2 C3           3.4240    -0.0690    -0.0550 ca         1 6HO      -0.139000
      3 C5           1.6160     1.4790    -0.5680 ca         1 6HO      -0.086000
      4 C6           0.6910     0.6580     0.1180 ca         1 6HO      -0.114600
      5 C7           1.1670    -0.5190     0.7450 ca         1 6HO      -0.130000
      6 C8          -0.7600     1.0900     0.2090 c          1 6HO       0.613700
      7 O9          -1.0500     2.2800     0.2770 o          1 6HO      -0.593100
      8 C11         -1.6440    -1.1850    -0.4400 c5         1 6HO       0.129200
      9 C12         -3.0880    -1.5430    -0.6900 c2         1 6HO      -0.233700
     10 C13         -3.9220    -0.6510    -0.1590 c2         1 6HO      -0.233700
     11 C14         -3.1850     0.4700     0.5300 c5         1 6HO       0.129200
     12 F1           2.9600    -2.0030     1.2530 f          1 6HO      -0.178000
     13 C4           2.9710     1.1150    -0.6610 ca         1 6HO      -0.090000
     14 N10         -1.7590     0.0970     0.3120 n          1 6HO      -0.411800
     15 H15          4.4710    -0.3540    -0.1220 ha         1 6HO       0.134000
     16 H17          1.2800     2.4000    -1.0410 ha         1 6HO       0.132000
     17 H18          0.5020    -1.1440     1.3340 ha         1 6HO       0.137000
     18 H19         -1.0880    -1.0560    -1.3780 h1         1 6HO       0.062450
     19 H21         -3.4130    -2.4310    -1.2360 ha         1 6HO       0.199000
     20 H22         -5.0100    -0.7220    -0.2210 ha         1 6HO       0.199000
     21 H23         -3.4320     1.4420     0.0810 h1         1 6HO       0.062450
     22 H24         -3.4210     0.5180     1.6020 h1         1 6HO       0.062450
     23 H16          3.6690     1.7520    -1.2010 ha         1 6HO       0.122000
     24 H20         -1.1470    -1.9640     0.1530 h1         1 6HO       0.062450
@<TRIPOS>BOND
     1     1     2 ar  
     2     1     5 ar  
     3     1    12 1   
     4     2    13 ar  
     5     2    15 1   
     6     3     4 ar  
     7     3    13 ar  
     8     3    16 1   
     9     4     5 ar  
    10     4     6 1   
    11     5    17 1   
    12     6     7 2   
    13     6    14 1   
    14     8     9 1   
    15     8    14 1   
    16     8    18 1   
    17     8    24 1   
    18     9    10 2   
    19     9    19 1   
    20    10    11 1   
    21    10    20 1   
    22    11    14 1   
    23    11    21 1   
    24    11    22 1   
    25    13    23 1   
@<TRIPOS>SUBSTRUCTURE
     1 6HO         1 TEMP              0 ****  ****    0 ROOT
