@<TRIPOS>MOLECULE
6HP
   31    31     1     0     0
SMALL
bcc


@<TRIPOS>ATOM
      1 C1           3.9770    -0.9450    -0.9600 c3         1 6HP      -0.089600
      2 C2           3.7490    -0.0660     0.2650 c3         1 6HP      -0.065700
      3 C3           4.8400     0.9950     0.3850 c3         1 6HP      -0.089600
      4 C6           0.1180     0.0160     0.1070 cc         1 6HP       0.326700
      5 C7          -0.3340     1.2950     0.0510 cd         1 6HP      -0.457200
      6 C8          -1.7320     1.5630    -0.0500 c          1 6HP       0.749700
      7 O9          -2.2110     2.6850    -0.1080 o          1 6HP      -0.617500
      8 C12         -2.1090    -0.8610     0.0050 c          1 6HP       0.830500
      9 C4           2.4040     0.6350     0.2210 c3         1 6HP       0.154400
     10 O5           1.3730    -0.3570     0.2030 os         1 6HP      -0.329900
     11 N10         -2.5580     0.4340    -0.0730 n          1 6HP      -0.505400
     12 O13         -2.8830    -1.7980     0.0130 o          1 6HP      -0.630500
     13 N14         -0.7410    -1.0480     0.0680 n          1 6HP      -0.384000
     14 H18          3.9540    -0.3490    -1.8760 hc         1 6HP       0.040200
     15 H17          4.9540    -1.4270    -0.9060 hc         1 6HP       0.040200
     16 H16          3.2290    -1.7320    -1.0520 hc         1 6HP       0.040200
     17 H19          3.7770    -0.6910     1.1630 hc         1 6HP       0.062700
     18 H22          4.8400     1.6550    -0.4850 hc         1 6HP       0.040200
     19 H21          4.7120     1.6110     1.2760 hc         1 6HP       0.040200
     20 H20          5.8230     0.5270     0.4430 hc         1 6HP       0.040200
     21 H25          0.3370     2.1380     0.0840 ha         1 6HP       0.172000
     22 H27         -4.2180     1.6550    -0.3060 h1         1 6HP       0.057700
     23 H28         -4.3990     0.0440    -1.0070 h1         1 6HP       0.057700
     24 H26         -4.4900     0.2640     0.7480 h1         1 6HP       0.057700
     25 H31          0.2150    -2.6230     1.0980 h1         1 6HP       0.060033
     26 H30         -1.0280    -3.1030    -0.0590 h1         1 6HP       0.060033
     27 H29          0.5410    -2.5560    -0.6460 h1         1 6HP       0.060033
     28 H23          2.2720     1.2790     1.0960 h1         1 6HP       0.051700
     29 H24          2.3280     1.2580    -0.6770 h1         1 6HP       0.051700
     30 C11         -4.0020     0.6040    -0.1630 c3         1 6HP       0.085300
     31 C15         -0.2150    -2.4100     0.1210 c3         1 6HP       0.090300
@<TRIPOS>BOND
     1     1     2 1   
     2     1    14 1   
     3     1    15 1   
     4     1    16 1   
     5     2     3 1   
     6     2     9 1   
     7     2    17 1   
     8     3    18 1   
     9     3    19 1   
    10     3    20 1   
    11     4     5 2   
    12     4    10 1   
    13     4    13 1   
    14     5     6 1   
    15     5    21 1   
    16     6     7 2   
    17     6    11 1   
    18     8    11 1   
    19     8    12 2   
    20     8    13 1   
    21     9    10 1   
    22     9    28 1   
    23     9    29 1   
    24    11    30 1   
    25    13    31 1   
    26    22    30 1   
    27    23    30 1   
    28    24    30 1   
    29    25    31 1   
    30    26    31 1   
    31    27    31 1   
@<TRIPOS>SUBSTRUCTURE
     1 6HP         1 TEMP              0 ****  ****    0 ROOT
