@<TRIPOS>MOLECULE
6HP
   31    31     1     0     0
SMALL
No Charge or Current Charge


@<TRIPOS>ATOM
      1 C1           4.1090    -0.8930    -1.0010 c3         1 6HP      -0.089600
      2 C2           3.8250     0.0110     0.2240 c3         1 6HP      -0.065700
      3 C3           4.9440     1.0600     0.4120 c3         1 6HP      -0.089600
      4 C6           0.0790    -0.1000     0.0710 cc         1 6HP       0.326700
      5 C7          -0.3380     1.2000     0.0220 cd         1 6HP      -0.507200
      6 C8          -1.7540     1.5310    -0.0390 c          1 6HP       0.607200
      7 O9          -2.1340     2.6900    -0.0770 o          1 6HP      -0.542000
      8 C12         -2.1930    -0.9050     0.0250 c          1 6HP       0.621000
      9 C4           2.4330     0.6870     0.1500 c3         1 6HP       0.177600
     10 O5           1.4310    -0.3480     0.1390 os         1 6HP      -0.353100
     11 N10         -2.6210     0.4320    -0.0440 n          1 6HP      -0.371400
     12 O13         -2.9990    -1.8260     0.0530 o          1 6HP      -0.555000
     13 N14         -0.8100    -1.1530     0.0650 n          1 6HP      -0.317000
     14 H18          4.0930    -0.3080    -1.9290 hc         1 6HP       0.040200
     15 H17          5.0940    -1.3670    -0.9120 hc         1 6HP       0.040200
     16 H16          3.3610    -1.6900    -1.0850 hc         1 6HP       0.040200
     17 H19          3.8290    -0.6290     1.1160 hc         1 6HP       0.062700
     18 H22          4.9940     1.7380    -0.4490 hc         1 6HP       0.040200
     19 H21          4.7670     1.6610     1.3120 hc         1 6HP       0.040200
     20 H20          5.9200     0.5710     0.5200 hc         1 6HP       0.040200
     21 H25          0.3120     2.0640     0.0270 ha         1 6HP       0.222000
     22 H27         -4.3030     1.6780    -0.5270 h1         1 6HP       0.057700
     23 H28         -4.5860    -0.0570    -0.7270 h1         1 6HP       0.057700
     24 H26         -4.5050     0.6430     0.9140 h1         1 6HP       0.057700
     25 H31         -0.4300    -2.9320     1.1550 h1         1 6HP       0.060033
     26 H30         -0.9450    -3.1930    -0.5360 h1         1 6HP       0.060033
     27 H29          0.7050    -2.6430    -0.1930 h1         1 6HP       0.060033
     28 H23          2.3010     1.3400     1.0230 h1         1 6HP       0.051700
     29 H24          2.3740     1.2990    -0.7600 h1         1 6HP       0.051700
     30 C11         -4.0860     0.6910    -0.0990 c3         1 6HP       0.085300
     31 C15         -0.3410    -2.5600     0.1270 c3         1 6HP       0.090300
@<TRIPOS>BOND
     1     1     2 1   
     2     1    14 1   
     3     1    15 1   
     4     1    16 1   
     5     2     3 1   
     6     2     9 1   
     7     2    17 1   
     8     3    18 1   
     9     3    19 1   
    10     3    20 1   
    11     4     5 2   
    12     4    10 1   
    13     4    13 1   
    14     5     6 1   
    15     5    21 1   
    16     6     7 2   
    17     6    11 1   
    18     8    11 1   
    19     8    12 2   
    20     8    13 1   
    21     9    10 1   
    22     9    28 1   
    23     9    29 1   
    24    11    30 1   
    25    13    31 1   
    26    22    30 1   
    27    23    30 1   
    28    24    30 1   
    29    25    31 1   
    30    26    31 1   
    31    27    31 1   
@<TRIPOS>SUBSTRUCTURE
     1 6HP         1 TEMP              0 ****  ****    0 ROOT
