@<TRIPOS>MOLECULE
6HQ
   20    20     1     0     0
SMALL
abcg2


@<TRIPOS>ATOM
      1 C1          -1.7390     1.6440    -0.0070 c3         1 6HQ       0.108300
      2 C3          -1.2420    -0.7630    -0.0060 c          1 6HQ       0.619000
      3 C6           1.0470    -0.8060    -0.0080 c          1 6HQ       0.565000
      4 C8           0.6100     0.6550     0.0060 c5         1 6HQ       0.036400
      5 C10          1.1340     1.3370     1.2670 c3         1 6HQ      -0.093100
      6 N2          -0.8380     0.5210     0.0170 n          1 6HQ      -0.424800
      7 O4          -2.3740    -1.2000    -0.0190 o          1 6HQ      -0.550000
      8 N5          -0.0880    -1.5460    -0.0110 ns         1 6HQ      -0.480500
      9 O7           2.1840    -1.2140    -0.0150 o          1 6HQ      -0.506000
     10 C9           1.1120     1.3550    -1.2540 c3         1 6HQ      -0.093100
     11 H11         -1.6800     2.1870    -0.9510 h1         1 6HQ       0.046700
     12 H13         -2.7580     1.2880     0.1190 h1         1 6HQ       0.046700
     13 H12         -1.5200     2.3360     0.8060 h1         1 6HQ       0.046700
     14 H19          0.7450     0.8600     2.1670 hc         1 6HQ       0.053533
     15 H18          2.2220     1.2930     1.2930 hc         1 6HQ       0.053533
     16 H20          0.8460     2.3890     1.2830 hc         1 6HQ       0.053533
     17 H14         -0.1170    -2.5560    -0.0260 hn         1 6HQ       0.356500
     18 H15          0.8230     2.4060    -1.2480 hc         1 6HQ       0.053533
     19 H16          2.2000     1.3130    -1.3000 hc         1 6HQ       0.053533
     20 H17          0.7090     0.8920    -2.1550 hc         1 6HQ       0.053533
@<TRIPOS>BOND
     1     1     6 1   
     2     1    11 1   
     3     1    12 1   
     4     1    13 1   
     5     2     6 1   
     6     2     7 2   
     7     2     8 1   
     8     3     4 1   
     9     3     8 1   
    10     3     9 2   
    11     4     5 1   
    12     4     6 1   
    13     4    10 1   
    14     5    14 1   
    15     5    15 1   
    16     5    16 1   
    17     8    17 1   
    18    10    18 1   
    19    10    19 1   
    20    10    20 1   
@<TRIPOS>SUBSTRUCTURE
     1 6HQ         1 TEMP              0 ****  ****    0 ROOT
