@<TRIPOS>MOLECULE
6HQ
   20    20     1     0     0
SMALL
No Charge or Current Charge


@<TRIPOS>ATOM
      1 C1          -1.8160     1.6560    -0.0320 c3         1 6HQ       0.108300
      2 C3          -1.2410    -0.7820    -0.1190 c          1 6HQ       0.619000
      3 C6           1.0800    -0.8550    -0.0270 c          1 6HQ       0.565000
      4 C8           0.6380     0.6480     0.0230 c5         1 6HQ       0.036400
      5 C10          1.1090     1.3040     1.3450 c3         1 6HQ      -0.093100
      6 N2          -0.8440     0.5470    -0.0430 n          1 6HQ      -0.424800
      7 O4          -2.3780    -1.2130    -0.1850 o          1 6HQ      -0.550000
      8 N5          -0.1080    -1.5080    -0.1050 ns         1 6HQ      -0.480500
      9 O7           2.1850    -1.3760    -0.0050 o          1 6HQ      -0.506000
     10 C9           1.2130     1.4190    -1.1920 c3         1 6HQ      -0.093100
     11 H11         -2.4120     1.6350    -0.9530 h1         1 6HQ       0.046700
     12 H13         -2.4840     1.5550     0.8330 h1         1 6HQ       0.046700
     13 H12         -1.2920     2.6180     0.0320 h1         1 6HQ       0.046700
     14 H19          0.7090     0.7690     2.2150 hc         1 6HQ       0.053533
     15 H18          2.2030     1.2970     1.4250 hc         1 6HQ       0.053533
     16 H20          0.7770     2.3470     1.4150 hc         1 6HQ       0.053533
     17 H14         -0.1440    -2.5140    -0.1520 hn         1 6HQ       0.356500
     18 H15          0.8840     2.4640    -1.1950 hc         1 6HQ       0.053533
     19 H16          2.3100     1.4150    -1.1830 hc         1 6HQ       0.053533
     20 H17          0.8870     0.9660    -2.1370 hc         1 6HQ       0.053533
@<TRIPOS>BOND
     1     1     6 1   
     2     1    11 1   
     3     1    12 1   
     4     1    13 1   
     5     2     6 1   
     6     2     7 2   
     7     2     8 1   
     8     3     4 1   
     9     3     8 1   
    10     3     9 2   
    11     4     5 1   
    12     4     6 1   
    13     4    10 1   
    14     5    14 1   
    15     5    15 1   
    16     5    16 1   
    17     8    17 1   
    18    10    18 1   
    19    10    19 1   
    20    10    20 1   
@<TRIPOS>SUBSTRUCTURE
     1 6HQ         1 TEMP              0 ****  ****    0 ROOT
