@<TRIPOS>MOLECULE
6HR
   46    48     1     0     0
SMALL
abcg2


@<TRIPOS>ATOM
      1 C1           4.5260    -0.2490     2.1990 c3         1 6HR      -0.048800
      2 C2           4.6740    -0.9520     0.8810 ca         1 6HR      -0.058300
      3 C3           5.6650    -1.9130     0.6980 ca         1 6HR      -0.113000
      4 C5           4.9630    -2.2860    -1.5680 ca         1 6HR      -0.115000
      5 C6           3.9700    -1.3310    -1.4000 ca         1 6HR      -0.094000
      6 C7           3.8190    -0.6620    -0.1900 cp         1 6HR      -0.047000
      7 C8           2.7480     0.3580    -0.0440 cp         1 6HR      -0.011000
      8 C10          0.4340     0.8720     0.4600 ca         1 6HR       0.289000
      9 C12         -2.0280     0.7740     0.3170 cc         1 6HR       0.710300
     10 C14         -4.2090     0.7270    -0.0080 cd         1 6HR       0.336300
     11 C15         -5.5770     0.2070     0.2860 c3         1 6HR      -0.102700
     12 C16         -5.7100    -1.2850    -0.0170 c3         1 6HR      -0.078400
     13 C19         -3.9010     1.6530    -0.9470 cc         1 6HR      -0.287000
     14 C21          0.7020     2.2230     0.2590 ca         1 6HR      -0.136000
     15 C22          1.9740     2.6200    -0.1250 ca         1 6HR      -0.088000
     16 C23          3.0150     1.7120    -0.2850 ca         1 6HR      -0.077300
     17 C24          4.3820     2.1740    -0.6960 c3         1 6HR      -0.044800
     18 C4           5.8150    -2.5760    -0.5130 ca         1 6HR      -0.103000
     19 C9           1.4690    -0.0490     0.3110 ca         1 6HR      -0.135000
     20 N11         -0.8290     0.4110     0.8430 nu         1 6HR      -0.935900
     21 N13         -3.1440     0.2390     0.7060 nd         1 6HR      -0.731000
     22 C17         -7.0780    -1.8120     0.3710 c3         1 6HR       0.162600
     23 O18         -7.1430    -3.1880     0.0640 oh         1 6HR      -0.660000
     24 S20         -2.1940     1.9410    -0.9650 ss         1 6HR      -0.083400
     25 H25          4.6840     0.8270     2.1010 hc         1 6HR       0.044700
     26 H26          3.5270    -0.3840     2.6150 hc         1 6HR       0.044700
     27 H27          5.2450    -0.6230     2.9270 hc         1 6HR       0.044700
     28 H28          6.3320    -2.1470     1.5200 ha         1 6HR       0.112000
     29 H30          5.0690    -2.7980    -2.5160 ha         1 6HR       0.115000
     30 H31          3.3020    -1.0970    -2.2210 ha         1 6HR       0.117000
     31 H34         -5.8060     0.3840     1.3430 hc         1 6HR       0.050700
     32 H35         -6.3110     0.7720    -0.2920 hc         1 6HR       0.050700
     33 H37         -5.5370    -1.4560    -1.0830 hc         1 6HR       0.062200
     34 H36         -4.9390    -1.8370     0.5270 hc         1 6HR       0.062200
     35 H41         -4.5610     2.1850    -1.6140 h4         1 6HR       0.159000
     36 H42         -0.0590     2.9740     0.4220 ha         1 6HR       0.128000
     37 H43          2.1630     3.6750    -0.2850 ha         1 6HR       0.116000
     38 H44          4.7420     1.6320    -1.5720 hc         1 6HR       0.045033
     39 H45          4.3810     3.2360    -0.9350 hc         1 6HR       0.045033
     40 H46          5.1160     2.0160     0.0970 hc         1 6HR       0.045033
     41 H29          6.5950    -3.3170    -0.6280 ha         1 6HR       0.113000
     42 H32          1.2730    -1.1030     0.4730 ha         1 6HR       0.122000
     43 H33         -0.8580    -0.4520     1.3660 hn         1 6HR       0.508000
     44 H38         -7.2410    -1.6330     1.4430 h1         1 6HR       0.014200
     45 H39         -7.8530    -1.2450    -0.1630 h1         1 6HR       0.014200
     46 H40         -8.0040    -3.5150     0.3390 ho         1 6HR       0.441000
@<TRIPOS>BOND
     1     1     2 1   
     2     1    25 1   
     3     1    26 1   
     4     1    27 1   
     5     2     3 ar  
     6     2     6 ar  
     7     3    18 ar  
     8     3    28 1   
     9     4     5 ar  
    10     4    18 ar  
    11     4    29 1   
    12     5     6 ar  
    13     5    30 1   
    14     6     7 1   
    15     7    16 ar  
    16     7    19 ar  
    17     8    14 ar  
    18     8    19 ar  
    19     8    20 1   
    20     9    20 1   
    21     9    21 2   
    22     9    24 1   
    23    10    11 1   
    24    10    13 2   
    25    10    21 1   
    26    11    12 1   
    27    11    31 1   
    28    11    32 1   
    29    12    22 1   
    30    12    33 1   
    31    12    34 1   
    32    13    24 1   
    33    13    35 1   
    34    14    15 ar  
    35    14    36 1   
    36    15    16 ar  
    37    15    37 1   
    38    16    17 1   
    39    17    38 1   
    40    17    39 1   
    41    17    40 1   
    42    18    41 1   
    43    19    42 1   
    44    20    43 1   
    45    22    23 1   
    46    22    44 1   
    47    22    45 1   
    48    23    46 1   
@<TRIPOS>SUBSTRUCTURE
     1 6HR         1 TEMP              0 ****  ****    0 ROOT
