@<TRIPOS>MOLECULE
6HR
   46    48     1     0     0
SMALL
No Charge or Current Charge


@<TRIPOS>ATOM
      1 C1           3.8990    -0.7200     2.3780 c3         1 6HR      -0.048800
      2 C2           4.3900    -1.1760     1.0080 ca         1 6HR      -0.058300
      3 C3           5.3730    -2.1850     0.9400 ca         1 6HR      -0.113000
      4 C5           5.3780    -2.0560    -1.4880 ca         1 6HR      -0.115000
      5 C6           4.3970    -1.0530    -1.4310 ca         1 6HR      -0.094000
      6 C7           3.8880    -0.5980    -0.1910 cp         1 6HR      -0.047000
      7 C8           2.8390     0.4640    -0.1690 cp         1 6HR      -0.011000
      8 C10          0.5060     1.1040     0.2620 ca         1 6HR       0.289000
      9 C12         -2.0050     1.0210     0.2120 cc         1 6HR       0.710300
     10 C14         -4.1790     0.7210     0.1590 cd         1 6HR       0.336300
     11 C15         -5.4720     0.1070     0.6270 c3         1 6HR      -0.102700
     12 C16         -5.7100    -1.3040     0.0430 c3         1 6HR      -0.078400
     13 C19         -4.0610     1.6430    -0.8560 cc         1 6HR      -0.287000
     14 C21          0.8030     2.4240    -0.1120 ca         1 6HR      -0.136000
     15 C22          2.1010     2.7700    -0.5210 ca         1 6HR      -0.088000
     16 C23          3.1240     1.8020    -0.5550 ca         1 6HR      -0.077300
     17 C24          4.5240     2.2250    -0.9890 c3         1 6HR      -0.044800
     18 C4           5.8650    -2.6230    -0.3010 ca         1 6HR      -0.103000
     19 C9           1.5240     0.1400     0.2410 ca         1 6HR      -0.135000
     20 N11         -0.7690     0.7400     0.6790 nu         1 6HR      -0.935900
     21 N13         -2.9870     0.3600     0.7680 nd         1 6HR      -0.731000
     22 C17         -7.0370    -1.9340     0.5090 c3         1 6HR       0.162600
     23 O18         -7.1870    -3.2310    -0.0760 oh         1 6HR      -0.660000
     24 S20         -2.4000     2.0990    -1.1020 ss         1 6HR      -0.083400
     25 H25          3.8360     0.3730     2.4340 hc         1 6HR       0.044700
     26 H26          2.9040    -1.1270     2.5930 hc         1 6HR       0.044700
     27 H27          4.5710    -1.0470     3.1800 hc         1 6HR       0.044700
     28 H28          5.7610    -2.6310     1.8530 ha         1 6HR       0.112000
     29 H30          5.7570    -2.3940    -2.4500 ha         1 6HR       0.115000
     30 H31          4.0200    -0.6230    -2.3560 ha         1 6HR       0.117000
     31 H34         -5.4790     0.0510     1.7220 hc         1 6HR       0.050700
     32 H35         -6.3090     0.7580     0.3470 hc         1 6HR       0.050700
     33 H37         -5.7040    -1.2450    -1.0530 hc         1 6HR       0.062200
     34 H36         -4.8800    -1.9600     0.3330 hc         1 6HR       0.062200
     35 H41         -4.8410     2.0720    -1.4720 h4         1 6HR       0.159000
     36 H42          0.0360     3.1900    -0.0720 ha         1 6HR       0.128000
     37 H43          2.3130     3.7990    -0.8060 ha         1 6HR       0.116000
     38 H44          4.7400     1.8790    -2.0060 hc         1 6HR       0.045033
     39 H45          4.6410     3.3150    -0.9790 hc         1 6HR       0.045033
     40 H46          5.2890     1.8110    -0.3220 hc         1 6HR       0.045033
     41 H29          6.6240    -3.4010    -0.3410 ha         1 6HR       0.113000
     42 H32          1.2990    -0.8820     0.5320 ha         1 6HR       0.122000
     43 H33         -0.8250    -0.0880     1.2640 hn         1 6HR       0.508000
     44 H38         -7.0390    -2.0080     1.6040 h1         1 6HR       0.014200
     45 H39         -7.8720    -1.2850     0.2110 h1         1 6HR       0.014200
     46 H40         -8.0420    -3.5930     0.2490 ho         1 6HR       0.441000
@<TRIPOS>BOND
     1     1     2 1   
     2     1    25 1   
     3     1    26 1   
     4     1    27 1   
     5     2     3 ar  
     6     2     6 ar  
     7     3    18 ar  
     8     3    28 1   
     9     4     5 ar  
    10     4    18 ar  
    11     4    29 1   
    12     5     6 ar  
    13     5    30 1   
    14     6     7 1   
    15     7    16 ar  
    16     7    19 ar  
    17     8    14 ar  
    18     8    19 ar  
    19     8    20 1   
    20     9    20 1   
    21     9    21 2   
    22     9    24 1   
    23    10    11 1   
    24    10    13 2   
    25    10    21 1   
    26    11    12 1   
    27    11    31 1   
    28    11    32 1   
    29    12    22 1   
    30    12    33 1   
    31    12    34 1   
    32    13    24 1   
    33    13    35 1   
    34    14    15 ar  
    35    14    36 1   
    36    15    16 ar  
    37    15    37 1   
    38    16    17 1   
    39    17    38 1   
    40    17    39 1   
    41    17    40 1   
    42    18    41 1   
    43    19    42 1   
    44    20    43 1   
    45    22    23 1   
    46    22    44 1   
    47    22    45 1   
    48    23    46 1   
@<TRIPOS>SUBSTRUCTURE
     1 6HR         1 TEMP              0 ****  ****    0 ROOT
