@<TRIPOS>MOLECULE
6HS
   67    69     1     0     0
SMALL
bcc


@<TRIPOS>ATOM
      1 C11          3.6500    -0.5120     0.1280 c6         1 6HS       0.365900
      2 C12         -0.9020     2.2480     0.3510 c6         1 6HS       0.149500
      3 C13         -2.5450    -0.6050    -0.9720 c6         1 6HS       0.310900
      4 C21          4.0720    -1.8040     0.8150 c6         1 6HS       0.129500
      5 C22          0.4120     3.0110     0.2150 c6         1 6HS      -0.114400
      6 C23         -3.9950    -0.1230    -1.0890 c6         1 6HS       0.105100
      7 C31          4.9850    -2.5530    -0.1630 c6         1 6HS      -0.066200
      8 C32          1.5900     2.2940     0.8650 c6         1 6HS       0.171500
      9 C33         -4.8050    -0.5080     0.1610 c6         1 6HS       0.174500
     10 C41          5.9900    -1.6120    -0.7520 c2         1 6HS      -0.291200
     11 C42          1.7330     0.9060     0.2510 c6         1 6HS       0.154100
     12 C43         -4.6530    -2.0210     0.4130 c6         1 6HS       0.138800
     13 C51          5.8550    -0.2870    -0.6750 c2         1 6HS       0.102900
     14 C52          0.4450     0.1080     0.4080 c6         1 6HS       0.111100
     15 C53         -3.1690    -2.3830     0.4460 c6         1 6HS       0.100400
     16 C61          6.8770     0.6880    -1.1590 c3         1 6HS       0.187600
     17 C62         -0.7420     0.8400    -0.2150 c6         1 6HS       0.136100
     18 C83         -5.2810    -2.4260     1.7400 c3         1 6HS      -0.115100
     19 N12         -2.0320     2.9040    -0.2970 n8         1 6HS      -0.889800
     20 N21          4.6630    -1.5220     2.1110 n8         1 6HS      -0.861800
     21 N32          2.8050     3.0570     0.6380 n8         1 6HS      -0.887800
     22 N33         -6.2050    -0.1410     0.0950 n7         1 6HS      -0.820200
     23 O61          6.3170     1.4790    -2.1840 oh         1 6HS      -0.579800
     24 O11          2.7830     0.2160     0.9090 os         1 6HS      -0.377600
     25 O23         -4.0370     1.2420    -1.3960 oh         1 6HS      -0.630800
     26 O43         -5.2960    -2.6690    -0.6710 oh         1 6HS      -0.587800
     27 O51          4.7820     0.3200    -0.1060 os         1 6HS      -0.348900
     28 O52          0.6430    -1.1480    -0.1960 oh         1 6HS      -0.603800
     29 O53         -2.4690    -1.9750    -0.7160 os         1 6HS      -0.407600
     30 O62         -1.9250     0.1190     0.0520 os         1 6HS      -0.458600
     31 H1           3.2040    -0.7600    -0.8460 h2         1 6HS       0.055700
     32 H2          -1.1500     2.1540     1.4130 h1         1 6HS       0.072700
     33 H3          -2.0260    -0.4440    -1.9240 h2         1 6HS       0.078700
     34 H4           3.1630    -2.3890     0.9780 h1         1 6HS       0.081700
     35 H5           0.6360     3.1650    -0.8470 hc         1 6HS       0.054700
     36 H6           0.2980     4.0040     0.6580 hc         1 6HS       0.054700
     37 H7          -4.4360    -0.6450    -1.9460 h1         1 6HS       0.090700
     38 H8           5.4860    -3.3710     0.3610 hc         1 6HS       0.054200
     39 H9           4.3930    -3.0270    -0.9540 hc         1 6HS       0.054200
     40 H10          1.3640     2.1620     1.9360 h1         1 6HS       0.030700
     41 H11         -4.3740     0.0050     1.0290 h1         1 6HS       0.066700
     42 H12          6.8720    -2.0090    -1.2380 ha         1 6HS       0.137000
     43 H13          1.9650     1.0280    -0.8170 h1         1 6HS       0.071700
     44 H14          0.2480    -0.0030     1.4860 h1         1 6HS       0.054700
     45 H15         -2.7090    -1.9640     1.3490 h1         1 6HS       0.052700
     46 H16         -3.0510    -3.4680     0.5040 h1         1 6HS       0.052700
     47 H17          7.2060     1.3070    -0.3130 h1         1 6HS       0.033200
     48 H18          7.7530     0.1260    -1.5020 h1         1 6HS       0.033200
     49 H19         -0.5770     0.9110    -1.3020 h1         1 6HS       0.052700
     50 H20         -6.3400    -2.1740     1.7500 hc         1 6HS       0.045700
     51 H21         -5.1810    -3.5020     1.9080 hc         1 6HS       0.045700
     52 H22         -4.8030    -1.9170     2.5780 hc         1 6HS       0.045700
     53 H23         -6.2700     1.2900     1.6120 h1         1 6HS       0.027700
     54 H24         -6.0620     2.0090     0.0150 h1         1 6HS       0.027700
     55 H25         -7.6210     1.3300     0.4940 h1         1 6HS       0.027700
     56 H26         -2.3100     3.7190     0.2360 hn         1 6HS       0.350300
     57 H27         -1.7470     3.2540    -1.2060 hn         1 6HS       0.350300
     58 H29          4.8300    -2.3990     2.5890 hn         1 6HS       0.338300
     59 H30          5.5780    -1.1020     1.9960 hn         1 6HS       0.338300
     60 H32          2.7530     3.9250     1.1580 hn         1 6HS       0.353300
     61 H33          3.6000     2.5570     1.0170 hn         1 6HS       0.353300
     62 H35         -6.5630    -0.2860    -0.8390 hn         1 6HS       0.374800
     63 H37          6.9130     2.2160    -2.3460 ho         1 6HS       0.404000
     64 H38         -3.4130     1.7530    -0.8280 ho         1 6HS       0.451000
     65 H39         -5.2600    -3.6200    -0.5260 ho         1 6HS       0.400000
     66 H40         -0.1180    -1.7080    -0.0110 ho         1 6HS       0.426000
     67 C93         -6.5410     1.1890     0.5590 c3         1 6HS       0.161100
@<TRIPOS>BOND
     1     1     4 1   
     2     1    24 1   
     3     1    27 1   
     4     1    31 1   
     5     2     5 1   
     6     2    17 1   
     7     2    19 1   
     8     2    32 1   
     9     3     6 1   
    10     3    29 1   
    11     3    30 1   
    12     3    33 1   
    13     4     7 1   
    14     4    20 1   
    15     4    34 1   
    16     5     8 1   
    17     5    35 1   
    18     5    36 1   
    19     6     9 1   
    20     6    25 1   
    21     6    37 1   
    22     7    10 1   
    23     7    38 1   
    24     7    39 1   
    25     8    11 1   
    26     8    21 1   
    27     8    40 1   
    28     9    12 1   
    29     9    22 1   
    30     9    41 1   
    31    10    13 2   
    32    10    42 1   
    33    11    14 1   
    34    11    24 1   
    35    11    43 1   
    36    12    15 1   
    37    12    18 1   
    38    12    26 1   
    39    13    16 1   
    40    13    27 1   
    41    14    17 1   
    42    14    28 1   
    43    14    44 1   
    44    15    29 1   
    45    15    45 1   
    46    15    46 1   
    47    16    23 1   
    48    16    47 1   
    49    16    48 1   
    50    17    30 1   
    51    17    49 1   
    52    18    50 1   
    53    18    51 1   
    54    18    52 1   
    55    19    56 1   
    56    19    57 1   
    57    20    58 1   
    58    20    59 1   
    59    21    60 1   
    60    21    61 1   
    61    22    62 1   
    62    22    67 1   
    63    23    63 1   
    64    25    64 1   
    65    26    65 1   
    66    28    66 1   
    67    53    67 1   
    68    54    67 1   
    69    55    67 1   
@<TRIPOS>SUBSTRUCTURE
     1 6HS         1 TEMP              0 ****  ****    0 ROOT
