@<TRIPOS>MOLECULE
6HS
   67    69     1     0     0
SMALL
No Charge or Current Charge


@<TRIPOS>ATOM
      1 C11          3.8240    -0.5510     0.3980 c6         1 6HS       0.412300
      2 C12         -0.9990     1.8020     1.2410 c6         1 6HS       0.149500
      3 C13         -2.2980    -1.1560    -0.3990 c6         1 6HS       0.357300
      4 C21          4.9270    -1.3510     1.1890 c6         1 6HS       0.129500
      5 C22          0.1480     2.7960     0.9420 c6         1 6HS      -0.114400
      6 C23         -3.4460    -0.3360    -1.0970 c6         1 6HS       0.128300
      7 C31          5.6540    -2.2680     0.1740 c6         1 6HS      -0.066200
      8 C32          1.5140     2.2310     1.4150 c6         1 6HS       0.171500
      9 C33         -4.7570    -0.3650    -0.2080 c6         1 6HS       0.174500
     10 C41          6.0290    -1.4860    -1.0800 c2         1 6HS      -0.341200
     11 C42          1.8220     0.8260     0.7860 c6         1 6HS       0.177300
     12 C43         -5.1040    -1.8580     0.1940 c6         1 6HS       0.162000
     13 C51          5.4460    -0.3200    -1.4130 c2         1 6HS       0.102900
     14 C52          0.6470    -0.1670     1.1030 c6         1 6HS       0.134300
     15 C53         -3.8560    -2.4880     0.8770 c6         1 6HS       0.123600
     16 C61          5.8650     0.5620    -2.5860 c3         1 6HS       0.210800
     17 C62         -0.6960     0.4230     0.5820 c6         1 6HS       0.159300
     18 C83         -6.3200    -1.9320     1.1630 c3         1 6HS      -0.115100
     19 N12         -2.2970     2.3690     0.7830 n8         1 6HS      -1.000200
     20 N21          5.9380    -0.4940     1.8950 n8         1 6HS      -0.972200
     21 N32          2.5870     3.2110     1.1250 n8         1 6HS      -0.998200
     22 N33         -5.9470     0.2970    -0.8500 n7         1 6HS      -0.875400
     23 O61          5.4070     0.0120    -3.8330 oh         1 6HS      -0.642000
     24 O11          3.1060     0.3480     1.2730 os         1 6HS      -0.424000
     25 O23         -3.0120     1.0140    -1.4230 oh         1 6HS      -0.753000
     26 O43         -5.4370    -2.6320    -0.9790 oh         1 6HS      -0.710000
     27 O51          4.4210     0.2260    -0.6720 os         1 6HS      -0.372100
     28 O52          0.8510    -1.4970     0.5790 oh         1 6HS      -0.726000
     29 O53         -2.7330    -2.4780    -0.0320 os         1 6HS      -0.454000
     30 O62         -1.7950    -0.5010     0.7870 os         1 6HS      -0.505000
     31 H1           3.1400    -1.2860    -0.0450 h2         1 6HS       0.055700
     32 H2          -1.0610     1.6710     2.3340 h1         1 6HS       0.072700
     33 H3          -1.4760    -1.2690    -1.1230 h2         1 6HS       0.078700
     34 H4           4.4360    -1.9840     1.9460 h1         1 6HS       0.081700
     35 H5           0.1860     3.0070    -0.1370 hc         1 6HS       0.054700
     36 H6          -0.0500     3.7530     1.4440 hc         1 6HS       0.054700
     37 H7          -3.6780    -0.8660    -2.0320 h1         1 6HS       0.090700
     38 H8           6.5490    -2.7150     0.6300 hc         1 6HS       0.054200
     39 H9           5.0000    -3.1070    -0.1050 hc         1 6HS       0.054200
     40 H10          1.4860     2.1070     2.5080 h1         1 6HS       0.030700
     41 H11         -4.5340     0.1720     0.7270 h1         1 6HS       0.066700
     42 H12          6.8470    -1.8850    -1.6820 ha         1 6HS       0.187000
     43 H13          1.8860     0.9570    -0.3050 h1         1 6HS       0.071700
     44 H14          0.5680    -0.2310     2.1990 h1         1 6HS       0.054700
     45 H15         -3.6000    -1.9390     1.7960 h1         1 6HS       0.052700
     46 H16         -4.0680    -3.5280     1.1630 h1         1 6HS       0.052700
     47 H17          5.4590     1.5740    -2.4490 h1         1 6HS       0.033200
     48 H18          6.9590     0.6510    -2.5920 h1         1 6HS       0.033200
     49 H19         -0.5780     0.6010    -0.4980 h1         1 6HS       0.052700
     50 H20         -7.2380    -1.5610     0.6940 hc         1 6HS       0.045700
     51 H21         -6.5120    -2.9630     1.4820 hc         1 6HS       0.045700
     52 H22         -6.1430    -1.3340     2.0650 hc         1 6HS       0.045700
     53 H23         -5.7020     2.2710    -0.0830 h1         1 6HS       0.027700
     54 H24         -5.2750     2.0900    -1.8040 h1         1 6HS       0.027700
     55 H25         -6.9730     2.0980    -1.3110 h1         1 6HS       0.027700
     56 H26         -3.0020     2.1600     1.5040 hn         1 6HS       0.405500
     57 H27         -2.2340     3.3950     0.8330 hn         1 6HS       0.405500
     58 H29          6.7770    -1.0570     2.0730 hn         1 6HS       0.393500
     59 H30          6.2630     0.2090     1.2220 hn         1 6HS       0.393500
     60 H32          2.5930     3.9260     1.8620 hn         1 6HS       0.408500
     61 H33          3.4850     2.7280     1.2540 hn         1 6HS       0.408500
     62 H35         -6.1310    -0.1590    -1.7520 hn         1 6HS       0.430000
     63 H37          5.7050     0.6270    -4.5380 ho         1 6HS       0.443000
     64 H38         -2.7410     1.4560    -0.5560 ho         1 6HS       0.550000
     65 H39         -4.6190    -3.1270    -1.2160 ho         1 6HS       0.499000
     66 H40          0.0130    -1.9840     0.7630 ho         1 6HS       0.525000
     67 C93         -5.9690     1.7640    -1.0200 c3         1 6HS       0.161100
@<TRIPOS>BOND
     1     1     4 1   
     2     1    24 1   
     3     1    27 1   
     4     1    31 1   
     5     2     5 1   
     6     2    17 1   
     7     2    19 1   
     8     2    32 1   
     9     3     6 1   
    10     3    29 1   
    11     3    30 1   
    12     3    33 1   
    13     4     7 1   
    14     4    20 1   
    15     4    34 1   
    16     5     8 1   
    17     5    35 1   
    18     5    36 1   
    19     6     9 1   
    20     6    25 1   
    21     6    37 1   
    22     7    10 1   
    23     7    38 1   
    24     7    39 1   
    25     8    11 1   
    26     8    21 1   
    27     8    40 1   
    28     9    12 1   
    29     9    22 1   
    30     9    41 1   
    31    10    13 2   
    32    10    42 1   
    33    11    14 1   
    34    11    24 1   
    35    11    43 1   
    36    12    15 1   
    37    12    18 1   
    38    12    26 1   
    39    13    16 1   
    40    13    27 1   
    41    14    17 1   
    42    14    28 1   
    43    14    44 1   
    44    15    29 1   
    45    15    45 1   
    46    15    46 1   
    47    16    23 1   
    48    16    47 1   
    49    16    48 1   
    50    17    30 1   
    51    17    49 1   
    52    18    50 1   
    53    18    51 1   
    54    18    52 1   
    55    19    56 1   
    56    19    57 1   
    57    20    58 1   
    58    20    59 1   
    59    21    60 1   
    60    21    61 1   
    61    22    62 1   
    62    22    67 1   
    63    23    63 1   
    64    25    64 1   
    65    26    65 1   
    66    28    66 1   
    67    53    67 1   
    68    54    67 1   
    69    55    67 1   
@<TRIPOS>SUBSTRUCTURE
     1 6HS         1 TEMP              0 ****  ****    0 ROOT
