@<TRIPOS>MOLECULE
6HU
   60    62     1     0     0
SMALL
abcg2


@<TRIPOS>ATOM
      1 C1           3.3570     0.1390     1.8760 c3         1 6HU       0.143900
      2 C3           3.7920     0.8120    -0.3430 c3         1 6HU       0.155300
      3 C6           3.4440     2.0470    -1.1650 c3         1 6HU       0.096600
      4 C8           1.8470     3.7760    -0.3200 cc         1 6HU      -0.126000
      5 C10          0.0760     2.4840    -0.3970 cd         1 6HU       0.503900
      6 C12         -1.5870     0.7030     0.0140 ca         1 6HU       0.298000
      7 C13         -0.7120    -0.3740     0.0810 ca         1 6HU      -0.123000
      8 C14         -1.1440    -1.6530     0.4300 cp         1 6HU      -0.044000
      9 C15         -2.4850    -1.8860     0.7150 ca         1 6HU      -0.066300
     10 C16         -2.9830    -3.2480     1.1060 c3         1 6HU      -0.040800
     11 C21         -5.7910     2.7520     0.2650 c3         1 6HU       0.151800
     12 C23         -0.1370    -2.7430     0.5020 cp         1 6HU      -0.029000
     13 C24          0.6190    -2.9020     1.6600 ca         1 6HU      -0.101000
     14 C25          1.5760    -3.9030     1.7600 ca         1 6HU      -0.121000
     15 C26          1.7800    -4.7580     0.6880 ca         1 6HU      -0.111000
     16 C27          1.0340    -4.6010    -0.4730 ca         1 6HU      -0.116000
     17 C28          0.0740    -3.5990    -0.5870 ca         1 6HU      -0.057300
     18 O2           3.7570     1.1760     1.0160 os         1 6HU      -0.440000
     19 C4           5.1300     0.2270    -0.7560 c3         1 6HU       0.135600
     20 O5           6.1340     1.2030    -0.6140 oh         1 6HU      -0.712000
     21 N7           2.1470     2.5660    -0.8080 na         1 6HU       0.136800
     22 C9           0.5010     3.7810    -0.0400 cd         1 6HU      -0.282000
     23 C17         -3.3740    -0.8100     0.6360 ca         1 6HU      -0.165000
     24 C18         -2.9480     0.4610     0.2900 ca         1 6HU       0.087100
     25 O19         -3.7520     1.5440     0.2080 os         1 6HU      -0.373100
     26 C20         -5.1370     1.4080     0.4830 c3         1 6HU       0.168600
     27 N22         -5.7310     3.1480    -1.1310 n8         1 6HU      -0.996200
     28 C29         -0.7030    -3.4290    -1.8610 c3         1 6HU      -0.049800
     29 N30          1.0780     1.7660    -0.8720 nc         1 6HU      -0.580800
     30 H35          2.3590    -0.2400     1.6200 h1         1 6HU       0.031367
     31 H36          4.0490    -0.7110     1.8730 h1         1 6HU       0.031367
     32 H37          3.3230     0.5410     2.8880 h1         1 6HU       0.031367
     33 H31          3.0340     0.0440    -0.5520 h1         1 6HU       0.065700
     34 H41          4.1700     2.8440    -1.0060 h1         1 6HU       0.072700
     35 H42          3.4610     1.7910    -2.2270 h1         1 6HU       0.072700
     36 H43          2.5970     4.5420    -0.1990 h4         1 6HU       0.154000
     37 H46          0.3330    -0.2210    -0.1470 ha         1 6HU       0.145000
     38 H47         -2.4330    -3.6450     1.9610 hc         1 6HU       0.041033
     39 H49         -4.0390    -3.2200     1.3740 hc         1 6HU       0.041033
     40 H48         -2.8710    -3.9710     0.2950 hc         1 6HU       0.041033
     41 H54         -6.8390     2.6420     0.5520 h1         1 6HU       0.036200
     42 H53         -5.3540     3.4810     0.9620 h1         1 6HU       0.036200
     43 H55          0.4530    -2.2300     2.4940 ha         1 6HU       0.115000
     44 H56          2.1550    -4.0130     2.6680 ha         1 6HU       0.111000
     45 H57          2.5220    -5.5450     0.7490 ha         1 6HU       0.109000
     46 H58          1.2060    -5.2670    -1.3100 ha         1 6HU       0.110000
     47 H38          5.3380    -0.6610    -0.1450 h1         1 6HU       0.025700
     48 H39          5.0400    -0.1250    -1.7930 h1         1 6HU       0.025700
     49 H40          6.9720     0.8140    -0.8780 ho         1 6HU       0.502000
     50 H44         -0.0860     4.5850     0.3720 ha         1 6HU       0.144000
     51 H45         -1.9030     2.7050    -0.0910 hn         1 6HU       0.501000
     52 H50         -4.4180    -0.9910     0.8590 ha         1 6HU       0.114000
     53 H52         -5.2910     1.0780     1.5160 h1         1 6HU       0.043200
     54 H51         -5.5870     0.6640    -0.1840 h1         1 6HU       0.043200
     55 H32         -6.2660     3.9960    -1.2640 hn         1 6HU       0.400000
     56 H33         -4.7790     3.3820    -1.3810 hn         1 6HU       0.400000
     57 H59         -0.5770    -2.4260    -2.2720 hc         1 6HU       0.045367
     58 H61         -0.3810    -4.1440    -2.6170 hc         1 6HU       0.045367
     59 H60         -1.7740    -3.5710    -1.7060 hc         1 6HU       0.045367
     60 N11         -1.2140     2.0020    -0.3000 nu         1 6HU      -0.919900
@<TRIPOS>BOND
     1     1    18 1   
     2     1    30 1   
     3     1    31 1   
     4     1    32 1   
     5     2     3 1   
     6     2    18 1   
     7     2    19 1   
     8     2    33 1   
     9     3    21 1   
    10     3    34 1   
    11     3    35 1   
    12     4    21 1   
    13     4    22 2   
    14     4    36 1   
    15     5    22 1   
    16     5    29 2   
    17     5    60 1   
    18     6     7 ar  
    19     6    24 ar  
    20     6    60 1   
    21     7     8 ar  
    22     7    37 1   
    23     8     9 ar  
    24     8    12 1   
    25     9    10 1   
    26     9    23 ar  
    27    10    38 1   
    28    10    39 1   
    29    10    40 1   
    30    11    26 1   
    31    11    27 1   
    32    11    41 1   
    33    11    42 1   
    34    12    13 ar  
    35    12    17 ar  
    36    13    14 ar  
    37    13    43 1   
    38    14    15 ar  
    39    14    44 1   
    40    15    16 ar  
    41    15    45 1   
    42    16    17 ar  
    43    16    46 1   
    44    17    28 1   
    45    19    20 1   
    46    19    47 1   
    47    19    48 1   
    48    20    49 1   
    49    21    29 1   
    50    22    50 1   
    51    23    24 ar  
    52    23    52 1   
    53    24    25 1   
    54    25    26 1   
    55    26    53 1   
    56    26    54 1   
    57    27    55 1   
    58    27    56 1   
    59    28    57 1   
    60    28    58 1   
    61    28    59 1   
    62    51    60 1   
@<TRIPOS>SUBSTRUCTURE
     1 6HU         1 TEMP              0 ****  ****    0 ROOT
