@<TRIPOS>MOLECULE
6HU
   60    62     1     0     0
SMALL
No Charge or Current Charge


@<TRIPOS>ATOM
      1 C1           5.4940     2.2090     1.7050 c3         1 6HU       0.143900
      2 C3           4.3450     1.2670    -0.2520 c3         1 6HU       0.155300
      3 C6           3.3430     1.7140    -1.3390 c3         1 6HU       0.096600
      4 C8           1.7430     3.5020    -0.4510 cc         1 6HU      -0.126000
      5 C10          0.0890     2.0650    -0.0960 cd         1 6HU       0.503900
      6 C12         -1.7590     0.3550     0.3430 ca         1 6HU       0.298000
      7 C13         -1.0180    -0.8380     0.4250 ca         1 6HU      -0.123000
      8 C14         -1.6450    -2.1000     0.5340 cp         1 6HU      -0.044000
      9 C15         -3.0640    -2.1570     0.5710 ca         1 6HU      -0.066300
     10 C16         -3.8060    -3.4860     0.6640 c3         1 6HU      -0.040800
     11 C21         -5.8160     2.9810     0.3540 c3         1 6HU       0.151800
     12 C23         -0.8040    -3.3320     0.6190 cp         1 6HU      -0.029000
     13 C24         -0.8000    -4.0960     1.8110 ca         1 6HU      -0.101000
     14 C25         -0.0120    -5.2520     1.9290 ca         1 6HU      -0.121000
     15 C26          0.7890    -5.6620     0.8540 ca         1 6HU      -0.111000
     16 C27          0.8000    -4.9180    -0.3370 ca         1 6HU      -0.116000
     17 C28          0.0110    -3.7570    -0.4670 ca         1 6HU      -0.057300
     18 O2           4.7290     2.4450     0.5070 os         1 6HU      -0.440000
     19 C4           5.6000     0.5650    -0.8620 c3         1 6HU       0.135600
     20 O5           6.3410     1.4390    -1.7360 oh         1 6HU      -0.712000
     21 N7           2.0600     2.1860    -0.7900 na         1 6HU       0.136800
     22 C9           0.4540     3.4120    -0.0060 cd         1 6HU      -0.282000
     23 C17         -3.8150    -0.9670     0.5130 ca         1 6HU      -0.165000
     24 C18         -3.1750     0.2880     0.4040 ca         1 6HU       0.087100
     25 O19         -3.9010     1.4730     0.3480 os         1 6HU      -0.373100
     26 C20         -5.3430     1.5040     0.4390 c3         1 6HU       0.168600
     27 N22         -5.5050     3.6340    -0.9440 n8         1 6HU      -0.996200
     28 C29          0.0460    -2.9930    -1.7870 c3         1 6HU      -0.049800
     29 N30          1.0250     1.2920    -0.5780 nc         1 6HU      -0.580800
     30 H35          4.9720     1.5090     2.3700 h1         1 6HU       0.031367
     31 H36          6.4850     1.7990     1.4710 h1         1 6HU       0.031367
     32 H37          5.6420     3.1490     2.2500 h1         1 6HU       0.031367
     33 H31          3.8360     0.5440     0.4000 h1         1 6HU       0.065700
     34 H41          3.7860     2.5170    -1.9390 h1         1 6HU       0.072700
     35 H42          3.1400     0.8710    -2.0110 h1         1 6HU       0.072700
     36 H43          2.4300     4.3340    -0.5530 h4         1 6HU       0.154000
     37 H46          0.0650    -0.8060     0.4250 ha         1 6HU       0.145000
     38 H47         -3.8030    -3.8660     1.6930 hc         1 6HU       0.041033
     39 H49         -4.8520    -3.3910     0.3500 hc         1 6HU       0.041033
     40 H48         -3.3460    -4.2470     0.0220 hc         1 6HU       0.041033
     41 H54         -6.9020     3.0210     0.5140 h1         1 6HU       0.036200
     42 H53         -5.3360     3.5530     1.1600 h1         1 6HU       0.036200
     43 H55         -1.4110    -3.7800     2.6530 ha         1 6HU       0.115000
     44 H56         -0.0210    -5.8260     2.8530 ha         1 6HU       0.111000
     45 H57          1.4020    -6.5570     0.9420 ha         1 6HU       0.109000
     46 H58          1.4260    -5.2480    -1.1640 ha         1 6HU       0.110000
     47 H38          6.2440     0.1990    -0.0520 h1         1 6HU       0.025700
     48 H39          5.2630    -0.3190    -1.4200 h1         1 6HU       0.025700
     49 H40          7.1400     0.9440    -2.0340 ho         1 6HU       0.502000
     50 H44         -0.1640     4.2270     0.3510 ha         1 6HU       0.144000
     51 H45         -1.8060     2.3790     0.3660 hn         1 6HU       0.501000
     52 H50         -4.8980    -1.0360     0.5520 ha         1 6HU       0.114000
     53 H52         -5.6760     1.0780     1.3940 h1         1 6HU       0.043200
     54 H51         -5.7990     0.9280    -0.3770 h1         1 6HU       0.043200
     55 H32         -5.6920     4.6420    -0.8670 hn         1 6HU       0.400000
     56 H33         -4.4900     3.5860    -1.0940 hn         1 6HU       0.400000
     57 H59          0.6680    -2.0940    -1.7040 hc         1 6HU       0.045367
     58 H61          0.4560    -3.6050    -2.6000 hc         1 6HU       0.045367
     59 H60         -0.9590    -2.6800    -2.0940 hc         1 6HU       0.045367
     60 N11         -1.1450     1.6170     0.2400 nu         1 6HU      -0.919900
@<TRIPOS>BOND
     1     1    18 1   
     2     1    30 1   
     3     1    31 1   
     4     1    32 1   
     5     2     3 1   
     6     2    18 1   
     7     2    19 1   
     8     2    33 1   
     9     3    21 1   
    10     3    34 1   
    11     3    35 1   
    12     4    21 1   
    13     4    22 2   
    14     4    36 1   
    15     5    22 1   
    16     5    29 2   
    17     5    60 1   
    18     6     7 ar  
    19     6    24 ar  
    20     6    60 1   
    21     7     8 ar  
    22     7    37 1   
    23     8     9 ar  
    24     8    12 1   
    25     9    10 1   
    26     9    23 ar  
    27    10    38 1   
    28    10    39 1   
    29    10    40 1   
    30    11    26 1   
    31    11    27 1   
    32    11    41 1   
    33    11    42 1   
    34    12    13 ar  
    35    12    17 ar  
    36    13    14 ar  
    37    13    43 1   
    38    14    15 ar  
    39    14    44 1   
    40    15    16 ar  
    41    15    45 1   
    42    16    17 ar  
    43    16    46 1   
    44    17    28 1   
    45    19    20 1   
    46    19    47 1   
    47    19    48 1   
    48    20    49 1   
    49    21    29 1   
    50    22    50 1   
    51    23    24 ar  
    52    23    52 1   
    53    24    25 1   
    54    25    26 1   
    55    26    53 1   
    56    26    54 1   
    57    27    55 1   
    58    27    56 1   
    59    28    57 1   
    60    28    58 1   
    61    28    59 1   
    62    51    60 1   
@<TRIPOS>SUBSTRUCTURE
     1 6HU         1 TEMP              0 ****  ****    0 ROOT
