@<TRIPOS>MOLECULE
6HV
   36    38     1     0     0
SMALL
abcg2


@<TRIPOS>ATOM
      1 C1           3.0660     0.6030     2.0810 c3         1 6HV      -0.050800
      2 C2           3.1260    -0.4510     1.0140 ca         1 6HV      -0.056300
      3 C3           4.0350    -1.5020     1.1110 ca         1 6HV      -0.113000
      4 C5           3.2310    -2.4600    -0.9390 ca         1 6HV      -0.116000
      5 C6           2.3210    -1.4180    -1.0510 ca         1 6HV      -0.096000
      6 C7           2.2630    -0.4150    -0.0880 cp         1 6HV      -0.047000
      7 C8           1.2690     0.6790    -0.2440 cp         1 6HV      -0.048000
      8 C10         -1.0040     1.4690     0.0420 ca         1 6HV      -0.180600
      9 C11         -0.6400     2.6930    -0.5140 ca         1 6HV      -0.051000
     10 C12          0.6550     2.8910    -0.9570 ca         1 6HV      -0.125000
     11 C13          1.6260     1.8980    -0.8340 ca         1 6HV      -0.033300
     12 C14          3.0200     2.1350    -1.3320 c3         1 6HV      -0.053800
     13 C15         -2.3920     1.2850     0.5240 c          1 6HV       0.508200
     14 N18         -4.0910    -0.4030     1.0140 nc         1 6HV      -0.585000
     15 C19         -4.5420    -1.6110     0.6030 cc         1 6HV       0.269900
     16 C4           4.0930    -2.5000     0.1470 ca         1 6HV      -0.103000
     17 C9          -0.0370     0.4740     0.1810 ca         1 6HV      -0.062000
     18 O16         -3.0250     2.1910     1.0200 o          1 6HV      -0.473100
     19 C17         -3.0370    -0.0410     0.3440 cd         1 6HV       0.332900
     20 C20         -3.8360    -2.1830    -0.4170 cd         1 6HV      -0.277000
     21 S21         -2.5450    -1.1720    -0.8640 ss         1 6HV       0.034600
     22 H23          3.1530     1.6100     1.6700 hc         1 6HV       0.045700
     23 H24          2.1210     0.5660     2.6270 hc         1 6HV       0.045700
     24 H22          3.8700     0.4720     2.8040 hc         1 6HV       0.045700
     25 H25          4.7080    -1.5410     1.9590 ha         1 6HV       0.113000
     26 H27          3.2660    -3.2330    -1.6960 ha         1 6HV       0.114000
     27 H28          1.6450    -1.3810    -1.8970 ha         1 6HV       0.115000
     28 H30         -1.3740     3.4800    -0.6260 ha         1 6HV       0.131000
     29 H31          0.9220     3.8370    -1.4120 ha         1 6HV       0.119000
     30 H32          3.2880     1.4200    -2.1120 hc         1 6HV       0.049033
     31 H33          3.1240     3.1370    -1.7430 hc         1 6HV       0.049033
     32 H34          3.7560     2.0210    -0.5350 hc         1 6HV       0.049033
     33 H26          4.8090    -3.3050     0.2470 ha         1 6HV       0.114000
     34 H29         -0.2820    -0.4660     0.6590 ha         1 6HV       0.125000
     35 H36         -4.0160    -3.1270    -0.9060 h4         1 6HV       0.163000
     36 H35         -5.4050    -2.0570     1.0740 h4         1 6HV       0.046100
@<TRIPOS>BOND
     1     1     2 1   
     2     1    22 1   
     3     1    23 1   
     4     1    24 1   
     5     2     3 ar  
     6     2     6 ar  
     7     3    16 ar  
     8     3    25 1   
     9     4     5 ar  
    10     4    16 ar  
    11     4    26 1   
    12     5     6 ar  
    13     5    27 1   
    14     6     7 1   
    15     7    11 ar  
    16     7    17 ar  
    17     8     9 ar  
    18     8    13 1   
    19     8    17 ar  
    20     9    10 ar  
    21     9    28 1   
    22    10    11 ar  
    23    10    29 1   
    24    11    12 1   
    25    12    30 1   
    26    12    31 1   
    27    12    32 1   
    28    13    18 2   
    29    13    19 1   
    30    14    15 1   
    31    14    19 2   
    32    15    20 2   
    33    15    36 1   
    34    16    33 1   
    35    17    34 1   
    36    19    21 1   
    37    20    21 1   
    38    20    35 1   
@<TRIPOS>SUBSTRUCTURE
     1 6HV         1 TEMP              0 ****  ****    0 ROOT
