@<TRIPOS>MOLECULE
6HV
   36    38     1     0     0
SMALL
No Charge or Current Charge


@<TRIPOS>ATOM
      1 C1           2.6660     0.2700     2.3570 c3         1 6HV      -0.050800
      2 C2           3.0120    -0.5870     1.1440 ca         1 6HV      -0.056300
      3 C3           3.9830    -1.6000     1.2840 ca         1 6HV      -0.113000
      4 C5           3.7350    -2.1990    -1.0590 ca         1 6HV      -0.116000
      5 C6           2.7650    -1.1950    -1.2080 ca         1 6HV      -0.096000
      6 C7           2.3880    -0.3770    -0.1160 cp         1 6HV      -0.047000
      7 C8           1.3460     0.6740    -0.3080 cp         1 6HV      -0.048000
      8 C10         -0.9390     1.4790     0.1340 ca         1 6HV      -0.180600
      9 C11         -0.6740     2.6300    -0.6310 ca         1 6HV      -0.051000
     10 C12          0.5790     2.8010    -1.2420 ca         1 6HV      -0.125000
     11 C13          1.5920     1.8340    -1.0910 ca         1 6HV      -0.033300
     12 C14          2.9410     2.0710    -1.7600 c3         1 6HV      -0.053800
     13 C15         -2.2860     1.3110     0.7930 c          1 6HV       0.508200
     14 N18         -4.2370    -0.2240     1.0980 nc         1 6HV      -0.585000
     15 C19         -4.7400    -1.4170     0.6450 cc         1 6HV       0.269900
     16 C4           4.3430    -2.4020     0.1880 ca         1 6HV      -0.103000
     17 C9           0.0790     0.5190     0.3020 ca         1 6HV      -0.062000
     18 O16         -2.7110     2.2110     1.5160 o          1 6HV      -0.473100
     19 C17         -3.0540     0.0410     0.5300 cd         1 6HV       0.332900
     20 C20         -3.9690    -2.0760    -0.2760 cd         1 6HV      -0.277000
     21 S21         -2.5010    -1.1840    -0.6190 ss         1 6HV       0.034600
     22 H23          2.6030     1.3310     2.0900 hc         1 6HV       0.045700
     23 H24          1.7010    -0.0270     2.7840 hc         1 6HV       0.045700
     24 H22          3.4200     0.1790     3.1480 hc         1 6HV       0.045700
     25 H25          4.4640    -1.7670     2.2450 ha         1 6HV       0.113000
     26 H27          4.0120    -2.8200    -1.9090 ha         1 6HV       0.114000
     27 H28          2.2930    -1.0480    -2.1760 ha         1 6HV       0.115000
     28 H30         -1.4420     3.3910    -0.7590 ha         1 6HV       0.131000
     29 H31          0.7620     3.6950    -1.8340 ha         1 6HV       0.119000
     30 H32          3.0590     1.4320    -2.6430 hc         1 6HV       0.049033
     31 H33          3.0570     3.1120    -2.0870 hc         1 6HV       0.049033
     32 H34          3.7690     1.8540    -1.0740 hc         1 6HV       0.049033
     33 H26          5.0940    -3.1800     0.3070 ha         1 6HV       0.114000
     34 H29         -0.1010    -0.3630     0.9130 ha         1 6HV       0.125000
     35 H36         -4.1750    -3.0210    -0.7620 h4         1 6HV       0.163000
     36 H35         -5.6940    -1.7500     1.0310 h4         1 6HV       0.046100
@<TRIPOS>BOND
     1     1     2 1   
     2     1    22 1   
     3     1    23 1   
     4     1    24 1   
     5     2     3 ar  
     6     2     6 ar  
     7     3    16 ar  
     8     3    25 1   
     9     4     5 ar  
    10     4    16 ar  
    11     4    26 1   
    12     5     6 ar  
    13     5    27 1   
    14     6     7 1   
    15     7    11 ar  
    16     7    17 ar  
    17     8     9 ar  
    18     8    13 1   
    19     8    17 ar  
    20     9    10 ar  
    21     9    28 1   
    22    10    11 ar  
    23    10    29 1   
    24    11    12 1   
    25    12    30 1   
    26    12    31 1   
    27    12    32 1   
    28    13    18 2   
    29    13    19 1   
    30    14    15 1   
    31    14    19 2   
    32    15    20 2   
    33    15    36 1   
    34    16    33 1   
    35    17    34 1   
    36    19    21 1   
    37    20    21 1   
    38    20    35 1   
@<TRIPOS>SUBSTRUCTURE
     1 6HV         1 TEMP              0 ****  ****    0 ROOT
