@<TRIPOS>MOLECULE
6HW
   36    38     1     0     0
SMALL
No Charge or Current Charge


@<TRIPOS>ATOM
      1 C1           1.5550     1.1660    -1.9300 c3         1 6HW      -0.049800
      2 C2           2.4840     1.1940    -0.7200 ca         1 6HW      -0.058300
      3 C3           3.4970     2.1730    -0.6690 ca         1 6HW      -0.113000
      4 C5           4.2680     1.3050     1.4660 ca         1 6HW      -0.116000
      5 C6           3.2600     0.3290     1.4270 ca         1 6HW      -0.093000
      6 C7           2.3550     0.2550     0.3410 cp         1 6HW      -0.047000
      7 C8           1.2880    -0.7910     0.3380 cp         1 6HW      -0.011000
      8 C10         -1.1020    -1.3510     0.4480 ca         1 6HW       0.290000
      9 C12         -3.1590     0.0140    -0.0250 cc         1 6HW       0.706300
     10 C14         -5.0560     1.0200    -0.4950 cd         1 6HW       0.317900
     11 C15         -4.2010     1.8030    -1.2380 cc         1 6HW      -0.289000
     12 C19          1.5960    -2.1750     0.2370 ca         1 6HW      -0.078300
     13 C4           4.3850     2.2290     0.4170 ca         1 6HW      -0.104000
     14 C9          -0.0680    -0.4030     0.4470 ca         1 6HW      -0.128000
     15 N11         -2.4350    -0.9680     0.5570 nu         1 6HW      -0.934900
     16 N13         -4.4480    -0.0200     0.1970 nd         1 6HW      -0.729000
     17 S16         -2.5560     1.2500    -1.0990 ss         1 6HW      -0.085400
     18 C17         -0.7840    -2.7130     0.3680 ca         1 6HW      -0.145000
     19 C18          0.5550    -3.1240     0.2590 ca         1 6HW      -0.086000
     20 C20          3.0330    -2.6670     0.0950 c3         1 6HW      -0.044800
     21 H23          1.3580     0.1400    -2.2610 hc         1 6HW       0.044700
     22 H21          0.5930     1.6360    -1.6960 hc         1 6HW       0.044700
     23 H22          1.9860     1.7020    -2.7840 hc         1 6HW       0.044700
     24 H24          3.6000     2.8940    -1.4770 ha         1 6HW       0.112000
     25 H26          4.9530     1.3470     2.3100 ha         1 6HW       0.114000
     26 H27          3.1700    -0.3780     2.2490 ha         1 6HW       0.117000
     27 H30         -6.1280     1.1550    -0.4230 h4         1 6HW       0.039100
     28 H31         -4.4380     2.6600    -1.8550 h4         1 6HW       0.160000
     29 H25          5.1640     2.9880     0.4450 ha         1 6HW       0.113000
     30 H28         -0.3040     0.6510     0.5490 ha         1 6HW       0.133000
     31 H29         -3.0700    -1.6750     0.9130 hn         1 6HW       0.508000
     32 H32         -1.5740    -3.4580     0.3780 ha         1 6HW       0.118000
     33 H33          0.7810    -4.1860     0.1880 ha         1 6HW       0.116000
     34 H34          3.5520    -2.6480     1.0600 hc         1 6HW       0.045033
     35 H35          3.0750    -3.6950    -0.2830 hc         1 6HW       0.045033
     36 H36          3.6000    -2.0420    -0.6050 hc         1 6HW       0.045033
@<TRIPOS>BOND
     1     1     2 1   
     2     1    21 1   
     3     1    22 1   
     4     1    23 1   
     5     2     3 ar  
     6     2     6 ar  
     7     3    13 ar  
     8     3    24 1   
     9     4     5 ar  
    10     4    13 ar  
    11     4    25 1   
    12     5     6 ar  
    13     5    26 1   
    14     6     7 1   
    15     7    12 ar  
    16     7    14 ar  
    17     8    14 ar  
    18     8    15 1   
    19     8    18 ar  
    20     9    15 1   
    21     9    16 2   
    22     9    17 1   
    23    10    11 2   
    24    10    16 1   
    25    10    27 1   
    26    11    17 1   
    27    11    28 1   
    28    12    19 ar  
    29    12    20 1   
    30    13    29 1   
    31    14    30 1   
    32    15    31 1   
    33    18    19 ar  
    34    18    32 1   
    35    19    33 1   
    36    20    34 1   
    37    20    35 1   
    38    20    36 1   
@<TRIPOS>SUBSTRUCTURE
     1 6HW         1 TEMP              0 ****  ****    0 ROOT
