@<TRIPOS>MOLECULE
6HW
   36    38     1     0     0
SMALL
abcg2


@<TRIPOS>ATOM
      1 C1           1.9210     0.6770    -2.1000 c3         1 6HW      -0.049800
      2 C2           2.5740     0.9940    -0.7860 ca         1 6HW      -0.058300
      3 C3           3.5390     1.9940    -0.6970 ca         1 6HW      -0.113000
      4 C5           3.8040     1.6020     1.6580 ca         1 6HW      -0.116000
      5 C6           2.8430     0.6020     1.5840 ca         1 6HW      -0.093000
      6 C7           2.2270     0.2930     0.3760 cp         1 6HW      -0.047000
      7 C8           1.2010    -0.7810     0.3220 cp         1 6HW      -0.011000
      8 C10         -1.1270    -1.4210     0.4820 ca         1 6HW       0.290000
      9 C12         -3.1580    -0.0530     0.1810 cc         1 6HW       0.706300
     10 C14         -4.8850     1.2240    -0.2670 cd         1 6HW       0.317900
     11 C15         -3.9800     1.9030    -1.0040 cc         1 6HW      -0.289000
     12 C19          1.5700    -2.1030     0.0540 ca         1 6HW      -0.078300
     13 C4           4.1520     2.3000     0.5110 ca         1 6HW      -0.104000
     14 C9          -0.1300    -0.4510     0.5510 ca         1 6HW      -0.128000
     15 N11         -2.4740    -1.1110     0.6900 nu         1 6HW      -0.934900
     16 N13         -4.4250     0.1250     0.4040 nd         1 6HW      -0.729000
     17 S16         -2.4370     1.1330    -0.8740 ss         1 6HW      -0.085400
     18 C17         -0.7640    -2.7410     0.2330 ca         1 6HW      -0.145000
     19 C18          0.5660    -3.0680     0.0350 ca         1 6HW      -0.086000
     20 C20          3.0010    -2.4740    -0.2050 c3         1 6HW      -0.044800
     21 H23          2.0860    -0.3630    -2.3930 hc         1 6HW       0.044700
     22 H21          0.8400     0.8210    -2.0560 hc         1 6HW       0.044700
     23 H22          2.3110     1.3110    -2.8950 hc         1 6HW       0.044700
     24 H24          3.8130     2.5440    -1.5890 ha         1 6HW       0.112000
     25 H26          4.2750     1.8320     2.6050 ha         1 6HW       0.114000
     26 H27          2.5670     0.0520     2.4750 ha         1 6HW       0.117000
     27 H30         -5.9260     1.5000    -0.1740 h4         1 6HW       0.039100
     28 H31         -4.1110     2.8000    -1.5880 h4         1 6HW       0.160000
     29 H25          4.9000     3.0810     0.5530 ha         1 6HW       0.113000
     30 H28         -0.3730     0.5720     0.8080 ha         1 6HW       0.133000
     31 H29         -3.0650    -1.8530     1.0330 hn         1 6HW       0.508000
     32 H32         -1.5250    -3.5110     0.1840 ha         1 6HW       0.118000
     33 H33          0.8280    -4.1020    -0.1580 ha         1 6HW       0.116000
     34 H34          3.6350    -2.2740     0.6610 hc         1 6HW       0.045033
     35 H35          3.0940    -3.5320    -0.4460 hc         1 6HW       0.045033
     36 H36          3.4170    -1.9050    -1.0380 hc         1 6HW       0.045033
@<TRIPOS>BOND
     1     1     2 1   
     2     1    21 1   
     3     1    22 1   
     4     1    23 1   
     5     2     3 ar  
     6     2     6 ar  
     7     3    13 ar  
     8     3    24 1   
     9     4     5 ar  
    10     4    13 ar  
    11     4    25 1   
    12     5     6 ar  
    13     5    26 1   
    14     6     7 1   
    15     7    12 ar  
    16     7    14 ar  
    17     8    14 ar  
    18     8    15 1   
    19     8    18 ar  
    20     9    15 1   
    21     9    16 2   
    22     9    17 1   
    23    10    11 2   
    24    10    16 1   
    25    10    27 1   
    26    11    17 1   
    27    11    28 1   
    28    12    19 ar  
    29    12    20 1   
    30    13    29 1   
    31    14    30 1   
    32    15    31 1   
    33    18    19 ar  
    34    18    32 1   
    35    19    33 1   
    36    20    34 1   
    37    20    35 1   
    38    20    36 1   
@<TRIPOS>SUBSTRUCTURE
     1 6HW         1 TEMP              0 ****  ****    0 ROOT
