@<TRIPOS>MOLECULE
6HX
   27    28     1     0     0
SMALL
No Charge or Current Charge


@<TRIPOS>ATOM
      1 C1          -0.1450     1.6690    -1.8920 c3         1 6HX      -0.040800
      2 C2          -1.0880     0.8330    -1.0320 ca         1 6HX      -0.092300
      3 C3          -2.4680     1.1140    -1.0610 ca         1 6HX      -0.075000
      4 C5          -2.8970    -0.6950     0.5070 ca         1 6HX       0.280000
      5 C7          -1.5260    -0.9800     0.5430 ca         1 6HX      -0.156000
      6 C8          -0.6020    -0.2230    -0.2140 cp         1 6HX      -0.005000
      7 C10          1.3550    -1.6600    -0.8730 ca         1 6HX      -0.094000
      8 C11          2.7210    -1.9890    -0.8280 ca         1 6HX      -0.112000
      9 C12          3.6030    -1.2200    -0.0520 ca         1 6HX      -0.102000
     10 C13          3.1170    -0.1230     0.6810 ca         1 6HX      -0.107000
     11 C14          1.7520     0.2090     0.6380 ca         1 6HX       0.131000
     12 C4          -3.3670     0.3540    -0.2940 ca         1 6HX      -0.167000
     13 N6          -3.7760    -1.4370     1.2500 nv         1 6HX      -1.066000
     14 C9           0.8500    -0.5550    -0.1470 cp         1 6HX      -0.027000
     15 H16          0.5580     1.0340    -2.4440 hc         1 6HX       0.042033
     16 H17         -0.6900     2.2680    -2.6300 hc         1 6HX       0.042033
     17 H18          0.4420     2.3590    -1.2740 hc         1 6HX       0.042033
     18 H19         -2.8490     1.9230    -1.6810 ha         1 6HX       0.110000
     19 H23         -1.1610    -1.7920     1.1660 ha         1 6HX       0.115000
     20 H24          0.6780    -2.2590    -1.4770 ha         1 6HX       0.120000
     21 H25          3.0940    -2.8400    -1.3940 ha         1 6HX       0.117000
     22 H26          4.6600    -1.4740    -0.0160 ha         1 6HX       0.117000
     23 H27          3.7990     0.4690     1.2870 ha         1 6HX       0.129000
     24 H20         -4.4280     0.5830    -0.3270 ha         1 6HX       0.112000
     25 H22         -3.4560    -2.2760     1.7290 hn         1 6HX       0.443000
     26 H21         -4.7790    -1.3140     1.1270 hn         1 6HX       0.443000
     27 Cl           1.1930     1.5800     1.5950 cl         1 6HX      -0.198000
@<TRIPOS>BOND
     1     1     2 1   
     2     1    15 1   
     3     1    16 1   
     4     1    17 1   
     5     2     3 ar  
     6     2     6 ar  
     7     3    12 ar  
     8     3    18 1   
     9     4     5 ar  
    10     4    12 ar  
    11     4    13 1   
    12     5     6 ar  
    13     5    19 1   
    14     6    14 1   
    15     7     8 ar  
    16     7    14 ar  
    17     7    20 1   
    18     8     9 ar  
    19     8    21 1   
    20     9    10 ar  
    21     9    22 1   
    22    10    11 ar  
    23    10    23 1   
    24    11    14 ar  
    25    11    27 1   
    26    12    24 1   
    27    13    25 1   
    28    13    26 1   
@<TRIPOS>SUBSTRUCTURE
     1 6HX         1 TEMP              0 ****  ****    0 ROOT
