@<TRIPOS>MOLECULE
6HX
   27    28     1     0     0
SMALL
bcc


@<TRIPOS>ATOM
      1 C1          -0.1280     1.6620    -1.8700 c3         1 6HX      -0.040800
      2 C2          -1.0670     0.8490    -1.0260 ca         1 6HX      -0.092300
      3 C3          -2.4380     1.0910    -1.0430 ca         1 6HX      -0.093000
      4 C5          -2.8750    -0.6880     0.5310 ca         1 6HX       0.141600
      5 C7          -1.5000    -0.9420     0.5530 ca         1 6HX      -0.174000
      6 C8          -0.6130    -0.1870    -0.2030 cp         1 6HX      -0.005000
      7 C10          1.3150    -1.6380    -0.8360 ca         1 6HX      -0.112000
      8 C11          2.6570    -1.9850    -0.7950 ca         1 6HX      -0.130000
      9 C12          3.5450    -1.2210    -0.0520 ca         1 6HX      -0.120000
     10 C13          3.0890    -0.1160     0.6520 ca         1 6HX      -0.125000
     11 C14          1.7430     0.2140     0.5990 ca         1 6HX       0.039400
     12 C4          -3.3300     0.3500    -0.2850 ca         1 6HX      -0.185000
     13 N6          -3.7430    -1.4040     1.3320 nv         1 6HX      -0.817200
     14 C9           0.8300    -0.5300    -0.1440 cp         1 6HX      -0.027000
     15 H16          0.5200     1.0320    -2.4820 hc         1 6HX       0.042033
     16 H17         -0.6800     2.3170    -2.5440 hc         1 6HX       0.042033
     17 H18          0.5220     2.2930    -1.2620 hc         1 6HX       0.042033
     18 H19         -2.8250     1.8830    -1.6740 ha         1 6HX       0.128000
     19 H23         -1.1160    -1.7450     1.1730 ha         1 6HX       0.133000
     20 H24          0.6220    -2.2300    -1.4200 ha         1 6HX       0.138000
     21 H25          3.0070    -2.8500    -1.3420 ha         1 6HX       0.135000
     22 H26          4.5940    -1.4820    -0.0120 ha         1 6HX       0.135000
     23 H27          3.7720     0.4790     1.2420 ha         1 6HX       0.147000
     24 H20         -4.3900     0.5760    -0.3310 ha         1 6HX       0.130000
     25 H22         -3.4170    -2.3150     1.6130 hn         1 6HX       0.387800
     26 H21         -4.6960    -1.4430     1.0060 hn         1 6HX       0.387800
     27 CL           1.1920     1.5880     1.5050 cl         1 6HX      -0.106400
@<TRIPOS>BOND
     1     1     2 1   
     2     1    15 1   
     3     1    16 1   
     4     1    17 1   
     5     2     3 ar  
     6     2     6 ar  
     7     3    12 ar  
     8     3    18 1   
     9     4     5 ar  
    10     4    12 ar  
    11     4    13 1   
    12     5     6 ar  
    13     5    19 1   
    14     6    14 1   
    15     7     8 ar  
    16     7    14 ar  
    17     7    20 1   
    18     8     9 ar  
    19     8    21 1   
    20     9    10 ar  
    21     9    22 1   
    22    10    11 ar  
    23    10    23 1   
    24    11    14 ar  
    25    11    27 1   
    26    12    24 1   
    27    13    25 1   
    28    13    26 1   
@<TRIPOS>SUBSTRUCTURE
     1 6HX         1 TEMP              0 ****  ****    0 ROOT
