@<TRIPOS>MOLECULE
6HY
   22    22     1     0     0
SMALL
No Charge or Current Charge


@<TRIPOS>ATOM
      1 O3          -4.4240     0.7780    -1.0740 o          1 6HY      -0.739500
      2 C8          -4.0250     0.4770     0.0400 c          1 6HY       0.718000
      3 O2          -4.3900     1.0350     1.0640 o          1 6HY      -0.739500
      4 C3          -2.9450    -0.6110     0.1540 c3         1 6HY      -0.204400
      5 C           -1.5230     0.0190     0.0560 c3         1 6HY      -0.143400
      6 C1          -0.3270    -0.9530     0.1530 c          1 6HY       0.588300
      7 O           -0.5150    -2.1560     0.3000 o          1 6HY      -0.560100
      8 C2           1.0580    -0.3990     0.0650 cc         1 6HY      -0.281200
      9 C5           1.3270     1.0130    -0.1090 cc         1 6HY      -0.046000
     10 C6           2.6350     1.4450    -0.1810 cd         1 6HY      -0.351200
     11 C7           3.7820     0.5310    -0.0900 c          1 6HY       0.554200
     12 O1           4.9450     0.8930    -0.1520 o          1 6HY      -0.577000
     13 N            3.4270    -0.7830     0.0730 ns         1 6HY      -0.365100
     14 C4           2.1330    -1.2710     0.1520 cd         1 6HY       0.009600
     15 H2          -2.9930    -1.0930     1.1380 hc         1 6HY       0.032200
     16 H3          -3.0220    -1.3110    -0.6870 hc         1 6HY       0.032200
     17 H4          -1.4070     0.5960    -0.8690 hc         1 6HY       0.064700
     18 H5          -1.3800     0.7980     0.8140 hc         1 6HY       0.064700
     19 H6           0.5160     1.7360    -0.1820 ha         1 6HY       0.207000
     20 H7           2.8920     2.4900    -0.3100 ha         1 6HY       0.204000
     21 H9           2.0560    -2.3500     0.2830 h4         1 6HY       0.216000
     22 H8           4.2110    -1.4210     0.1370 hn         1 6HY       0.318500
@<TRIPOS>BOND
     1     1     2 1   
     2     2     3 1   
     3     2     4 1   
     4     4     5 1   
     5     4    15 1   
     6     4    16 1   
     7     5     6 1   
     8     5    17 1   
     9     5    18 1   
    10     6     7 2   
    11     6     8 1   
    12     8     9 1   
    13     8    14 2   
    14     9    10 2   
    15     9    19 1   
    16    10    11 1   
    17    10    20 1   
    18    11    12 2   
    19    11    13 1   
    20    13    14 1   
    21    13    22 1   
    22    14    21 1   
@<TRIPOS>SUBSTRUCTURE
     1 6HY         1 TEMP              0 ****  ****    0 ROOT
