@<TRIPOS>MOLECULE
6HY
   22    22     1     0     0
SMALL
bcc


@<TRIPOS>ATOM
      1 O3          -5.1590    -0.0730     0.0110 o          1 6HY      -0.844800
      2 C8          -4.0190     0.4360     0.0230 c          1 6HY       0.928600
      3 O2          -3.7520     1.6530     0.0290 o          1 6HY      -0.844800
      4 C3          -2.8470    -0.5630     0.0280 c3         1 6HY      -0.204400
      5 C           -1.4700     0.0730     0.0270 c3         1 6HY      -0.143400
      6 C1          -0.3310    -0.9110     0.0320 c          1 6HY       0.588300
      7 O           -0.5140    -2.1140     0.0360 o          1 6HY      -0.560100
      8 C2           1.0450    -0.3670     0.0370 cc         1 6HY      -0.281200
      9 C5           1.3620     1.0200     0.0230 cc         1 6HY       0.004000
     10 C6           2.6460     1.4580     0.0280 cd         1 6HY      -0.301200
     11 C7           3.7540     0.5400     0.0500 c          1 6HY       0.696700
     12 O1           4.9410     0.8370     0.0560 o          1 6HY      -0.652500
     13 N            3.3660    -0.7960     0.0610 ns         1 6HY      -0.432100
     14 C4           2.1020    -1.2360     0.0550 cd         1 6HY       0.059600
     15 H2          -2.9590    -1.2160     0.8990 hc         1 6HY       0.032200
     16 H3          -2.9570    -1.2230    -0.8370 hc         1 6HY       0.032200
     17 H4          -1.3510     0.7290    -0.8410 hc         1 6HY       0.064700
     18 H5          -1.3530     0.7370     0.8900 hc         1 6HY       0.064700
     19 H6           0.5680     1.7550     0.0080 ha         1 6HY       0.157000
     20 H7           2.8720     2.5150     0.0160 ha         1 6HY       0.154000
     21 H9           1.9760    -2.3090     0.0660 h4         1 6HY       0.166000
     22 H8           4.1100    -1.4810     0.0760 hn         1 6HY       0.318500
@<TRIPOS>BOND
     1     1     2 1   
     2     2     3 1   
     3     2     4 1   
     4     4     5 1   
     5     4    15 1   
     6     4    16 1   
     7     5     6 1   
     8     5    17 1   
     9     5    18 1   
    10     6     7 2   
    11     6     8 1   
    12     8     9 1   
    13     8    14 2   
    14     9    10 2   
    15     9    19 1   
    16    10    11 1   
    17    10    20 1   
    18    11    12 2   
    19    11    13 1   
    20    13    14 1   
    21    13    22 1   
    22    14    21 1   
@<TRIPOS>SUBSTRUCTURE
     1 6HY         1 TEMP              0 ****  ****    0 ROOT
