@<TRIPOS>MOLECULE
6HZ
   40    42     1     0     0
SMALL
bcc


@<TRIPOS>ATOM
      1 C1          -2.1620    -0.7960     2.1790 c3         1 6HZ      -0.047800
      2 C2          -2.9950    -0.0360     1.1870 ca         1 6HZ      -0.061300
      3 C3          -4.2200     0.5080     1.5640 ca         1 6HZ      -0.131000
      4 C5          -4.5580     1.4090    -0.6350 ca         1 6HZ      -0.133000
      5 C6          -3.3390     0.8720    -1.0260 ca         1 6HZ      -0.110000
      6 C7          -2.5550     0.1530    -0.1290 cp         1 6HZ      -0.043000
      7 C8          -1.2490    -0.4000    -0.5720 cp         1 6HZ      -0.046000
      8 C10          1.1380    -0.1040    -0.8530 ca         1 6HZ      -0.148600
      9 C11          1.2310    -1.3950    -1.3570 ca         1 6HZ      -0.099000
     10 C12          0.0910    -2.1750    -1.4760 ca         1 6HZ      -0.141000
     11 C13         -1.1570    -1.7020    -1.0810 ca         1 6HZ      -0.045300
     12 C14         -2.3740    -2.5710    -1.2050 c3         1 6HZ      -0.050800
     13 C15          2.3200     0.8080    -0.7860 c          1 6HZ       0.683700
     14 C19          4.7490    -0.5800     1.4870 c2         1 6HZ      -0.184700
     15 C21          4.5750     1.2270     0.0210 c5         1 6HZ       0.130200
     16 C4          -5.0000     1.2240     0.6660 ca         1 6HZ      -0.122000
     17 C9          -0.1090     0.3880    -0.4810 ca         1 6HZ      -0.072000
     18 O16          2.2890     1.9050    -1.3330 o          1 6HZ      -0.597100
     19 N17          3.3960     0.3760    -0.1100 n          1 6HZ      -0.479800
     20 C18          3.4460    -0.7830     0.7820 c5         1 6HZ       0.130200
     21 C20          5.3700     0.5110     1.0630 c2         1 6HZ      -0.184700
     22 H24         -1.9030    -1.7930     1.8150 hc         1 6HZ       0.042367
     23 H23         -1.2200    -0.2850     2.3850 hc         1 6HZ       0.042367
     24 H22         -2.6880    -0.9150     3.1240 hc         1 6HZ       0.042367
     25 H25         -4.5680     0.3700     2.5810 ha         1 6HZ       0.129000
     26 H27         -5.1560     1.9680    -1.3440 ha         1 6HZ       0.133000
     27 H28         -2.9890     1.0130    -2.0410 ha         1 6HZ       0.137000
     28 H30          2.1830    -1.7950    -1.6810 ha         1 6HZ       0.136000
     29 H31          0.1740    -3.1740    -1.8870 ha         1 6HZ       0.132000
     30 H33         -3.1460    -2.0980    -1.8130 hc         1 6HZ       0.046700
     31 H34         -2.1270    -3.5290    -1.6620 hc         1 6HZ       0.046700
     32 H32         -2.8210    -2.7740    -0.2300 hc         1 6HZ       0.046700
     33 H40          5.1120     1.3170    -0.9290 h1         1 6HZ       0.061450
     34 H39          4.3050     2.2410     0.3320 h1         1 6HZ       0.061450
     35 H26         -5.9480     1.6370     0.9850 ha         1 6HZ       0.130000
     36 H29         -0.1980     1.3980    -0.0990 ha         1 6HZ       0.149000
     37 H35          3.4380    -1.7300     0.2360 h1         1 6HZ       0.061450
     38 H36          2.5960    -0.8000     1.4700 h1         1 6HZ       0.061450
     39 H38          6.3290     0.8730     1.4060 ha         1 6HZ       0.147500
     40 H37          5.1090    -1.2720     2.2350 ha         1 6HZ       0.147500
@<TRIPOS>BOND
     1     1     2 1   
     2     1    22 1   
     3     1    23 1   
     4     1    24 1   
     5     2     3 ar  
     6     2     6 ar  
     7     3    16 ar  
     8     3    25 1   
     9     4     5 ar  
    10     4    16 ar  
    11     4    26 1   
    12     5     6 ar  
    13     5    27 1   
    14     6     7 1   
    15     7    11 ar  
    16     7    17 ar  
    17     8     9 ar  
    18     8    13 1   
    19     8    17 ar  
    20     9    10 ar  
    21     9    28 1   
    22    10    11 ar  
    23    10    29 1   
    24    11    12 1   
    25    12    30 1   
    26    12    31 1   
    27    12    32 1   
    28    13    18 2   
    29    13    19 1   
    30    14    20 1   
    31    14    21 2   
    32    14    40 1   
    33    15    19 1   
    34    15    21 1   
    35    15    33 1   
    36    15    34 1   
    37    16    35 1   
    38    17    36 1   
    39    19    20 1   
    40    20    37 1   
    41    20    38 1   
    42    21    39 1   
@<TRIPOS>SUBSTRUCTURE
     1 6HZ         1 TEMP              0 ****  ****    0 ROOT
