@<TRIPOS>MOLECULE
6HZ
   40    42     1     0     0
SMALL
No Charge or Current Charge


@<TRIPOS>ATOM
      1 C1          -2.0890    -0.1970     2.3640 c3         1 6HZ      -0.047800
      2 C2          -3.0540     0.2050     1.2520 ca         1 6HZ      -0.061300
      3 C3          -4.3340     0.6790     1.6030 ca         1 6HZ      -0.113000
      4 C5          -4.9120     0.9390    -0.7430 ca         1 6HZ      -0.115000
      5 C6          -3.6390     0.4700    -1.1030 ca         1 6HZ      -0.092000
      6 C7          -2.6920     0.0970    -0.1190 cp         1 6HZ      -0.043000
      7 C8          -1.3440    -0.3890    -0.5380 cp         1 6HZ      -0.046000
      8 C10          1.0920    -0.0120    -0.6420 ca         1 6HZ      -0.148600
      9 C11          1.2370    -1.2400    -1.3220 ca         1 6HZ      -0.081000
     10 C12          0.1160    -2.0430    -1.5890 ca         1 6HZ      -0.123000
     11 C13         -1.1730    -1.6360    -1.1970 ca         1 6HZ      -0.045300
     12 C14         -2.3550    -2.5520    -1.4920 c3         1 6HZ      -0.050800
     13 C15          2.2730     0.8890    -0.3460 c          1 6HZ       0.616700
     14 C19          5.0030    -0.8480     1.2980 c2         1 6HZ      -0.234700
     15 C21          4.7460     1.1460     0.0680 c5         1 6HZ       0.130200
     16 C4          -5.2590     1.0440     0.6120 ca         1 6HZ      -0.104000
     17 C9          -0.2040     0.4070    -0.2790 ca         1 6HZ      -0.054000
     18 O16          2.1500     2.1080    -0.3930 o          1 6HZ      -0.597100
     19 N17          3.5340     0.2980    -0.1110 n          1 6HZ      -0.412800
     20 C18          3.6560    -0.9860     0.6350 c5         1 6HZ       0.130200
     21 C20          5.5970     0.3030     0.9860 c2         1 6HZ      -0.234700
     22 H24         -1.5870    -1.1430     2.1320 hc         1 6HZ       0.042367
     23 H23         -1.3180     0.5680     2.5090 hc         1 6HZ       0.042367
     24 H22         -2.6060    -0.3310     3.3220 hc         1 6HZ       0.042367
     25 H25         -4.6170     0.7650     2.6500 ha         1 6HZ       0.111000
     26 H27         -5.6270     1.2210    -1.5130 ha         1 6HZ       0.115000
     27 H28         -3.3750     0.3970    -2.1560 ha         1 6HZ       0.119000
     28 H30          2.2120    -1.5680    -1.6740 ha         1 6HZ       0.118000
     29 H31          0.2530    -2.9870    -2.1120 ha         1 6HZ       0.114000
     30 H33         -2.9340    -2.1830    -2.3460 hc         1 6HZ       0.046700
     31 H34         -2.0300    -3.5720    -1.7290 hc         1 6HZ       0.046700
     32 H32         -3.0310    -2.6200    -0.6310 hc         1 6HZ       0.046700
     33 H40          5.2420     1.3330    -0.8940 h1         1 6HZ       0.061450
     34 H39          4.5090     2.1150     0.5270 h1         1 6HZ       0.061450
     35 H26         -6.2450     1.4090     0.8940 ha         1 6HZ       0.112000
     36 H29         -0.3370     1.3640     0.2220 ha         1 6HZ       0.131000
     37 H35          3.6400    -1.8530    -0.0380 h1         1 6HZ       0.061450
     38 H36          2.8490    -1.1050     1.3710 h1         1 6HZ       0.061450
     39 H38          6.5800     0.6020     1.3560 ha         1 6HZ       0.197500
     40 H37          5.4450    -1.6030     1.9520 ha         1 6HZ       0.197500
@<TRIPOS>BOND
     1     1     2 1   
     2     1    22 1   
     3     1    23 1   
     4     1    24 1   
     5     2     3 ar  
     6     2     6 ar  
     7     3    16 ar  
     8     3    25 1   
     9     4     5 ar  
    10     4    16 ar  
    11     4    26 1   
    12     5     6 ar  
    13     5    27 1   
    14     6     7 1   
    15     7    11 ar  
    16     7    17 ar  
    17     8     9 ar  
    18     8    13 1   
    19     8    17 ar  
    20     9    10 ar  
    21     9    28 1   
    22    10    11 ar  
    23    10    29 1   
    24    11    12 1   
    25    12    30 1   
    26    12    31 1   
    27    12    32 1   
    28    13    18 2   
    29    13    19 1   
    30    14    20 1   
    31    14    21 2   
    32    14    40 1   
    33    15    19 1   
    34    15    21 1   
    35    15    33 1   
    36    15    34 1   
    37    16    35 1   
    38    17    36 1   
    39    19    20 1   
    40    20    37 1   
    41    20    38 1   
    42    21    39 1   
@<TRIPOS>SUBSTRUCTURE
     1 6HZ         1 TEMP              0 ****  ****    0 ROOT
