@<TRIPOS>MOLECULE
6I0
   54    58     1     0     0
SMALL
No Charge or Current Charge


@<TRIPOS>ATOM
      1 C11         98.1240    39.9200   -28.7020 ca         1 6I0       0.511900
      2 C13         97.5360    37.5430   -28.8410 ca         1 6I0      -0.041000
      3 C16         98.1540    36.1890   -25.4470 c6         1 6I0       0.074600
      4 C17         99.1910    37.2330   -24.9630 c          1 6I0       0.546000
      5 C20         98.5560    38.5420   -26.9040 ca         1 6I0       0.465900
      6 C22         98.6790    42.3870   -28.3780 c5         1 6I0       0.080000
      7 C23         98.8550    48.9410   -26.7130 c5         1 6I0      -0.016100
      8 C24         99.5380    50.2730   -26.8970 ca         1 6I0      -0.080300
      9 C25         99.6730    50.6010   -28.2310 ca         1 6I0      -0.082300
     10 C26         99.0990    49.5440   -29.1370 c5         1 6I0      -0.030100
     11 C27        100.2730    51.8080   -28.6230 ca         1 6I0      -0.096000
     12 C28        100.7450    52.6900   -27.6310 ca         1 6I0      -0.104000
     13 C1          99.0400    48.3120   -28.1510 c5         1 6I0      -0.067700
     14 C12         97.5820    38.8260   -29.4240 ca         1 6I0      -0.178000
     15 C14         98.0300    37.4000   -27.5410 ca         1 6I0       0.004100
     16 C2          97.9800    47.2550   -28.5340 c3         1 6I0       0.167800
     17 C29        100.6070    52.3570   -26.2660 ca         1 6I0      -0.103000
     18 C30         99.9980    51.1430   -25.8930 ca         1 6I0       0.137000
     19 C5          97.0830    44.3170   -29.1240 c3         1 6I0      -0.139400
     20 C6          98.4250    43.5730   -29.3510 c5         1 6I0       0.153300
     21 C8          98.1500    41.6280   -30.5540 c          1 6I0       0.706100
     22 N10         98.2470    41.2540   -29.2170 n          1 6I0      -0.428300
     23 N19         99.1350    38.4220   -25.6450 ns         1 6I0      -0.317900
     24 N21         98.6180    39.7680   -27.4500 nb         1 6I0      -0.755000
     25 N3          98.0050    46.1040   -27.6080 n7         1 6I0      -0.876400
     26 O15         98.0350    36.1700   -26.9010 os         1 6I0      -0.321100
     27 O18        100.0290    37.0100   -24.0990 o          1 6I0      -0.519000
     28 O7          98.3790    42.9670   -30.6600 os         1 6I0      -0.412100
     29 Cl31        99.8190    50.7370   -24.1880 cl         1 6I0      -0.217000
     30 H42         97.1220    36.6930   -29.3790 ha         1 6I0       0.143000
     31 H44         97.1860    36.4650   -25.0080 h1         1 6I0       0.088200
     32 H43         98.4490    35.1970   -25.0810 h1         1 6I0       0.088200
     33 H46         99.7420    42.3030   -28.1170 h1         1 6I0       0.076700
     34 H47         98.0970    42.4640   -27.4500 h1         1 6I0       0.076700
     35 H49         97.7970    49.0700   -26.4560 hc         1 6I0       0.067200
     36 H48         99.3130    48.3220   -25.9330 hc         1 6I0       0.067200
     37 H50         99.7250    49.3430   -30.0140 hc         1 6I0       0.055700
     38 H51         98.1040    49.8300   -29.4960 hc         1 6I0       0.055700
     39 H52        100.3720    52.0600   -29.6770 ha         1 6I0       0.118000
     40 H53        101.2140    53.6290   -27.9170 ha         1 6I0       0.118000
     41 H32        100.0100    47.8010   -28.1870 hc         1 6I0       0.049700
     42 H41         97.1730    38.9490   -30.4180 ha         1 6I0       0.167000
     43 H34         96.9900    47.7320   -28.5230 h1         1 6I0       0.035200
     44 H33         98.1780    46.9260   -29.5640 h1         1 6I0       0.035200
     45 H54        100.9680    53.0390   -25.5010 ha         1 6I0       0.129000
     46 H36         96.9910    44.3560   -26.9570 h1         1 6I0       0.058200
     47 H37         95.9570    45.5470   -27.7430 h1         1 6I0       0.058200
     48 H39         96.2580    43.5960   -29.1780 hc         1 6I0       0.066700
     49 H38         96.9130    45.0190   -29.9490 hc         1 6I0       0.066700
     50 H40         99.2480    44.2990   -29.3260 h1         1 6I0       0.080700
     51 H45         99.7530    39.1670   -25.3580 hn         1 6I0       0.177000
     52 H35         98.9280    45.6580   -27.6530 hn         1 6I0       0.409000
     53 O9          97.9380    40.9010   -31.5100 o          1 6I0      -0.517000
     54 C4          96.9510    45.0790   -27.7840 c3         1 6I0       0.167800
@<TRIPOS>BOND
     1     1    14 ar  
     2     1    22 1   
     3     1    24 ar  
     4     2    14 ar  
     5     2    15 ar  
     6     2    30 1   
     7     3     4 1   
     8     3    26 1   
     9     3    31 1   
    10     3    32 1   
    11     4    23 1   
    12     4    27 2   
    13     5    15 ar  
    14     5    23 1   
    15     5    24 ar  
    16     6    20 1   
    17     6    22 1   
    18     6    33 1   
    19     6    34 1   
    20     7     8 1   
    21     7    13 1   
    22     7    35 1   
    23     7    36 1   
    24     8     9 ar  
    25     8    18 ar  
    26     9    10 1   
    27     9    11 ar  
    28    10    13 1   
    29    10    37 1   
    30    10    38 1   
    31    11    12 ar  
    32    11    39 1   
    33    12    17 ar  
    34    12    40 1   
    35    13    16 1   
    36    13    41 1   
    37    14    42 1   
    38    15    26 1   
    39    16    25 1   
    40    16    43 1   
    41    16    44 1   
    42    17    18 ar  
    43    17    45 1   
    44    18    29 1   
    45    19    20 1   
    46    19    48 1   
    47    19    49 1   
    48    19    54 1   
    49    20    28 1   
    50    20    50 1   
    51    21    22 1   
    52    21    28 1   
    53    21    53 2   
    54    23    51 1   
    55    25    52 1   
    56    25    54 1   
    57    46    54 1   
    58    47    54 1   
@<TRIPOS>SUBSTRUCTURE
     1 6I0         1 TEMP              0 ****  ****    0 ROOT
