@<TRIPOS>MOLECULE
6I0
   54    58     1     0     0
SMALL
abcg2


@<TRIPOS>ATOM
      1 C11         98.1830    39.9010   -28.7700 ca         1 6I0       0.511900
      2 C13         97.7470    37.5700   -29.0690 ca         1 6I0      -0.041000
      3 C16         97.9810    36.0560   -25.8040 c6         1 6I0       0.074600
      4 C17         98.7120    37.1310   -25.0150 c          1 6I0       0.546000
      5 C20         98.5340    38.4770   -27.0160 ca         1 6I0       0.465900
      6 C22         98.6600    42.3030   -28.2830 c5         1 6I0       0.080000
      7 C23         99.0810    49.0000   -26.7030 c5         1 6I0      -0.016100
      8 C24         99.5730    50.3900   -26.9990 ca         1 6I0      -0.080300
      9 C25         99.6370    50.6170   -28.3780 ca         1 6I0      -0.082300
     10 C26         99.1710    49.3930   -29.1240 c5         1 6I0      -0.030100
     11 C27        100.0590    51.8400   -28.8810 ca         1 6I0      -0.096000
     12 C28        100.4240    52.8500   -27.9920 ca         1 6I0      -0.104000
     13 C1          99.2240    48.2720   -28.0610 c5         1 6I0      -0.067700
     14 C12         97.7650    38.8540   -29.5960 ca         1 6I0      -0.178000
     15 C14         98.1360    37.3650   -27.7580 ca         1 6I0       0.004100
     16 C2          98.2010    47.1740   -28.3000 c3         1 6I0       0.167800
     17 C29        100.3610    52.6440   -26.6170 ca         1 6I0      -0.103000
     18 C30         99.9310    51.4110   -26.1350 ca         1 6I0       0.137000
     19 C5          97.1380    44.3250   -28.7130 c3         1 6I0      -0.139400
     20 C6          98.3820    43.5580   -29.1200 c5         1 6I0       0.153300
     21 C8          98.0450    41.7060   -30.4620 c          1 6I0       0.706100
     22 N10         98.2370    41.2370   -29.1880 n          1 6I0      -0.428300
     23 N19         98.9480    38.2830   -25.6980 ns         1 6I0      -0.317900
     24 N21         98.5560    39.7070   -27.5020 nb         1 6I0      -0.755000
     25 N3          98.3230    46.1070   -27.3120 n7         1 6I0      -0.876400
     26 O15         98.2050    36.1130   -27.2160 os         1 6I0      -0.321100
     27 O18         99.0110    36.9750   -23.8430 o          1 6I0      -0.519000
     28 O7          98.2070    43.0450   -30.4740 os         1 6I0      -0.412100
     29 CL31        99.8440    51.1540   -24.3990 cl         1 6I0      -0.217000
     30 H42         97.4370    36.7270   -29.6730 ha         1 6I0       0.143000
     31 H44         96.9100    36.1520   -25.5880 h1         1 6I0       0.088200
     32 H43         98.3260    35.0820   -25.4700 h1         1 6I0       0.088200
     33 H46         99.7140    42.1920   -28.0280 h1         1 6I0       0.076700
     34 H47         98.0780    42.2810   -27.3650 h1         1 6I0       0.076700
     35 H49         98.0310    49.0310   -26.3900 hc         1 6I0       0.067200
     36 H48         99.6360    48.5160   -25.9010 hc         1 6I0       0.067200
     37 H50         99.7780    49.1720   -30.0030 hc         1 6I0       0.055700
     38 H51         98.1420    49.5420   -29.4720 hc         1 6I0       0.055700
     39 H52        100.1090    52.0090   -29.9500 ha         1 6I0       0.118000
     40 H53        100.7620    53.8070   -28.3670 ha         1 6I0       0.118000
     41 H32        100.2240    47.8260   -28.0960 hc         1 6I0       0.049700
     42 H41         97.4650    39.0420   -30.6120 ha         1 6I0       0.167000
     43 H34         97.1940    47.5970   -28.2140 h1         1 6I0       0.035200
     44 H33         98.3060    46.8160   -29.3350 h1         1 6I0       0.035200
     45 H54        100.6450    53.4270   -25.9270 ha         1 6I0       0.129000
     46 H36         97.4930    44.3590   -26.5780 h1         1 6I0       0.058200
     47 H37         96.3320    45.5420   -27.1470 h1         1 6I0       0.058200
     48 H39         96.3010    43.6250   -28.6280 hc         1 6I0       0.066700
     49 H38         96.8910    45.0270   -29.5120 hc         1 6I0       0.066700
     50 H40         99.2510    44.2120   -29.1570 h1         1 6I0       0.080700
     51 H45         99.3450    39.0690   -25.1990 hn         1 6I0       0.177000
     52 H35         99.2470    45.6920   -27.3670 hn         1 6I0       0.409000
     53 O9          97.7780    41.0820   -31.4660 o          1 6I0      -0.517000
     54 C4          97.2930    45.0750   -27.3790 c3         1 6I0       0.167800
@<TRIPOS>BOND
     1     1    14 ar  
     2     1    22 1   
     3     1    24 ar  
     4     2    14 ar  
     5     2    15 ar  
     6     2    30 1   
     7     3     4 1   
     8     3    26 1   
     9     3    31 1   
    10     3    32 1   
    11     4    23 1   
    12     4    27 2   
    13     5    15 ar  
    14     5    23 1   
    15     5    24 ar  
    16     6    20 1   
    17     6    22 1   
    18     6    33 1   
    19     6    34 1   
    20     7     8 1   
    21     7    13 1   
    22     7    35 1   
    23     7    36 1   
    24     8     9 ar  
    25     8    18 ar  
    26     9    10 1   
    27     9    11 ar  
    28    10    13 1   
    29    10    37 1   
    30    10    38 1   
    31    11    12 ar  
    32    11    39 1   
    33    12    17 ar  
    34    12    40 1   
    35    13    16 1   
    36    13    41 1   
    37    14    42 1   
    38    15    26 1   
    39    16    25 1   
    40    16    43 1   
    41    16    44 1   
    42    17    18 ar  
    43    17    45 1   
    44    18    29 1   
    45    19    20 1   
    46    19    48 1   
    47    19    49 1   
    48    19    54 1   
    49    20    28 1   
    50    20    50 1   
    51    21    22 1   
    52    21    28 1   
    53    21    53 2   
    54    23    51 1   
    55    25    52 1   
    56    25    54 1   
    57    46    54 1   
    58    47    54 1   
@<TRIPOS>SUBSTRUCTURE
     1 6I0         1 TEMP              0 ****  ****    0 ROOT
