@<TRIPOS>MOLECULE
6I1
   70    76     1     0     0
SMALL
abcg2


@<TRIPOS>ATOM
      1 C13         -0.7960    -1.1270    84.5720 ca         1 6I1       0.139600
      2 C15         -0.5390    -2.7070    82.7090 ca         1 6I1       0.080700
      3 C17         -2.9630    -0.2720    85.2610 c          1 6I1       0.631000
      4 C21         -1.0990    -3.5950    81.6320 c3         1 6I1      -0.056800
      5 C26         -5.5980    -2.2720    84.5900 c          1 6I1       0.586100
      6 C1           4.3930    -6.2110    82.0130 c6         1 6I1      -0.074200
      7 C2           4.4130    -6.4340    83.5200 c6         1 6I1      -0.063400
      8 C3           2.9870    -6.5090    84.0470 c6         1 6I1      -0.181400
      9 C4           2.1290    -5.3210    83.6620 c          1 6I1       0.603300
     10 C5           2.4990    -4.5760    82.4480 ce         1 6I1      -0.487400
     11 C6           3.5310    -5.0570    81.6390 c2         1 6I1       0.284900
     12 C9           0.8360    -2.6730    82.9190 ca         1 6I1      -0.170600
     13 C11          1.3850    -1.9010    83.9410 ca         1 6I1      -0.006000
     14 C12          0.5900    -1.1280    84.7580 ca         1 6I1      -0.179000
     15 C14         -1.3630    -1.9240    83.5540 ca         1 6I1      -0.206600
     16 C19         -2.8170    -1.9220    83.4120 c          1 6I1       0.598600
     17 C29         -7.5780    -3.5510    84.3760 ca         1 6I1       0.115100
     18 C30         -7.2770    -4.8210    83.9150 ca         1 6I1      -0.100000
     19 C31         -8.0960    -5.8870    84.2590 ca         1 6I1      -0.085000
     20 C32         -9.2260    -5.6930    85.0610 ca         1 6I1      -0.033000
     21 C33         -9.5280    -4.3820    85.5250 ca         1 6I1      -0.010000
     22 C34         -8.6870    -3.2850    85.1810 ca         1 6I1      -0.029000
     23 C35        -10.0960    -6.7710    85.4290 ca         1 6I1      -0.094000
     24 C36        -11.1900    -6.5610    86.2020 ca         1 6I1      -0.094000
     25 C37        -11.5210    -5.2520    86.6830 ca         1 6I1      -0.033000
     26 C38        -10.6750    -4.1610    86.3360 ca         1 6I1      -0.016000
     27 C39        -10.9790    -2.8520    86.8010 ca         1 6I1      -0.032000
     28 C40        -10.1080    -1.7730    86.4370 ca         1 6I1      -0.094000
     29 C41         -9.0120    -1.9760    85.6640 ca         1 6I1      -0.086000
     30 C42        -12.6450    -5.0110    87.4810 ca         1 6I1      -0.094000
     31 C43        -12.9360    -3.7280    87.9290 ca         1 6I1      -0.106000
     32 C44        -12.1140    -2.6580    87.5960 ca         1 6I1      -0.093000
     33 N16         -1.6010    -0.3460    85.3980 n          1 6I1      -0.300000
     34 N18         -3.5120    -1.0400    84.2390 n          1 6I1      -0.367400
     35 O7           3.8070    -4.5130    80.4840 oh         1 6I1      -0.540100
     36 O10          2.0010    -2.8820    80.8950 o          1 6I1      -0.597100
     37 O23         -3.4630    -2.6160    82.6380 o          1 6I1      -0.529000
     38 O24         -3.6710     0.4210    85.9800 o          1 6I1      -0.560000
     39 O27         -6.7820    -2.4710    83.9710 os         1 6I1      -0.361200
     40 O28         -5.1540    -2.9750    85.4570 o          1 6I1      -0.445000
     41 H1          -1.7780    -4.3340    82.0550 hc         1 6I1       0.061700
     42 H2          -1.6730    -3.0250    80.9030 hc         1 6I1       0.061700
     43 H3          -0.3020    -4.1190    81.1090 hc         1 6I1       0.061700
     44 H4          -1.7790     0.9430    87.0120 h1         1 6I1       0.060367
     45 H5          -0.4500    -0.2250    87.1540 h1         1 6I1       0.060367
     46 H6          -0.2990     1.1720    86.0610 h1         1 6I1       0.060367
     47 H7           3.9880    -7.0950    81.5030 hc         1 6I1       0.082200
     48 H8           5.3880    -6.0390    81.6020 hc         1 6I1       0.082200
     49 H9           4.9540    -7.3520    83.7520 hc         1 6I1       0.056700
     50 H10          4.9450    -5.6110    84.0030 hc         1 6I1       0.056700
     51 H11          2.9520    -6.5990    85.1330 hc         1 6I1       0.074200
     52 H12          2.4870    -7.3960    83.6370 hc         1 6I1       0.074200
     53 H15          2.4570    -1.9030    84.0940 ha         1 6I1       0.120000
     54 H16          1.0480    -0.5330    85.5310 ha         1 6I1       0.127000
     55 H17         -5.3490    -0.1690    84.6270 h1         1 6I1       0.103700
     56 H18         -5.1970    -0.8820    83.0120 h1         1 6I1       0.103700
     57 H19         -6.4060    -4.9660    83.2910 ha         1 6I1       0.135000
     58 H20         -7.8630    -6.8820    83.9020 ha         1 6I1       0.119000
     59 H21         -9.8570    -7.7660    85.0720 ha         1 6I1       0.115000
     60 H22        -11.8390    -7.3860    86.4720 ha         1 6I1       0.114000
     61 H23        -10.3460    -0.7790    86.7960 ha         1 6I1       0.115000
     62 H24         -8.3700    -1.1480    85.4000 ha         1 6I1       0.122000
     63 H25        -13.2900    -5.8400    87.7460 ha         1 6I1       0.114000
     64 H26        -13.8100    -3.5610    88.5450 ha         1 6I1       0.114000
     65 H27        -12.3460    -1.6610    87.9490 ha         1 6I1       0.115000
     66 H28          3.1350    -3.7580    80.3560 ho         1 6I1       0.548000
     67 C22         -0.9880     0.4360    86.4750 c3         1 6I1       0.086300
     68 C8           1.7880    -3.3890    82.0160 c          1 6I1       0.638900
     69 C25         -4.9520    -1.0100    84.0620 c3         1 6I1       0.040000
     70 O20          1.1380    -5.0500    84.3290 o          1 6I1      -0.535100
@<TRIPOS>BOND
     1     1    14 ar  
     2     1    15 ar  
     3     1    33 1   
     4     2     4 1   
     5     2    12 ar  
     6     2    15 ar  
     7     3    33 1   
     8     3    34 1   
     9     3    38 2   
    10     4    41 1   
    11     4    42 1   
    12     4    43 1   
    13     5    39 1   
    14     5    40 2   
    15     5    69 1   
    16     6     7 1   
    17     6    11 1   
    18     6    47 1   
    19     6    48 1   
    20     7     8 1   
    21     7    49 1   
    22     7    50 1   
    23     8     9 1   
    24     8    51 1   
    25     8    52 1   
    26     9    10 1   
    27     9    70 2   
    28    10    11 2   
    29    10    68 1   
    30    11    35 1   
    31    12    13 ar  
    32    12    68 1   
    33    13    14 ar  
    34    13    53 1   
    35    14    54 1   
    36    15    16 1   
    37    16    34 1   
    38    16    37 2   
    39    17    18 ar  
    40    17    22 ar  
    41    17    39 1   
    42    18    19 ar  
    43    18    57 1   
    44    19    20 ar  
    45    19    58 1   
    46    20    21 ar  
    47    20    23 ar  
    48    21    22 ar  
    49    21    26 ar  
    50    22    29 ar  
    51    23    24 ar  
    52    23    59 1   
    53    24    25 ar  
    54    24    60 1   
    55    25    26 ar  
    56    25    30 ar  
    57    26    27 ar  
    58    27    28 ar  
    59    27    32 ar  
    60    28    29 ar  
    61    28    61 1   
    62    29    62 1   
    63    30    31 ar  
    64    30    63 1   
    65    31    32 ar  
    66    31    64 1   
    67    32    65 1   
    68    33    67 1   
    69    34    69 1   
    70    35    66 1   
    71    36    68 2   
    72    44    67 1   
    73    45    67 1   
    74    46    67 1   
    75    55    69 1   
    76    56    69 1   
@<TRIPOS>SUBSTRUCTURE
     1 6I1         1 TEMP              0 ****  ****    0 ROOT
