@<TRIPOS>MOLECULE
6I1
   70    76     1     0     0
SMALL
No Charge or Current Charge


@<TRIPOS>ATOM
      1 C13         -0.6170    -1.5240    84.4260 ca         1 6I1       0.139600
      2 C15         -0.5630    -3.0950    82.5300 ca         1 6I1       0.080700
      3 C17         -2.7620    -0.6990    85.3910 c          1 6I1       0.631000
      4 C21         -1.2690    -3.9870    81.4960 c3         1 6I1      -0.056800
      5 C26         -5.6750    -2.5220    84.7370 c          1 6I1       0.586100
      6 C1           5.3590    -5.2730    82.0910 c6         1 6I1      -0.074200
      7 C2           5.2880    -5.6050    83.5960 c6         1 6I1      -0.063400
      8 C3           3.9600    -6.3270    83.9030 c6         1 6I1      -0.181400
      9 C4           2.7410    -5.5120    83.4560 c          1 6I1       0.603300
     10 C5           2.8760    -4.7290    82.1950 ce         1 6I1      -0.487400
     11 C6           4.0800    -4.6210    81.5890 c2         1 6I1       0.284900
     12 C9           0.8510    -3.1730    82.6510 ca         1 6I1      -0.170600
     13 C11          1.5010    -2.4800    83.6830 ca         1 6I1      -0.006000
     14 C12          0.7740    -1.6930    84.5750 ca         1 6I1      -0.179000
     15 C14         -1.3010    -2.2420    83.4200 ca         1 6I1      -0.206600
     16 C19         -2.8040    -2.0680    83.3360 c          1 6I1       0.598600
     17 C29         -7.9270    -3.4310    84.7560 ca         1 6I1       0.115100
     18 C30         -7.6860    -4.7190    84.2400 ca         1 6I1      -0.100000
     19 C31         -8.6110    -5.7540    84.4570 ca         1 6I1      -0.085000
     20 C32         -9.7890    -5.5060    85.1820 ca         1 6I1      -0.033000
     21 C33        -10.0450    -4.2130    85.6900 ca         1 6I1      -0.010000
     22 C34         -9.1150    -3.1680    85.4740 ca         1 6I1      -0.029000
     23 C35        -10.7160    -6.5420    85.3990 ca         1 6I1      -0.094000
     24 C36        -11.8970    -6.2960    86.1200 ca         1 6I1      -0.094000
     25 C37        -12.1600    -5.0110    86.6280 ca         1 6I1      -0.033000
     26 C38        -11.2330    -3.9660    86.4130 ca         1 6I1      -0.016000
     27 C39        -11.4960    -2.6760    86.9210 ca         1 6I1      -0.032000
     28 C40        -10.5730    -1.6380    86.7050 ca         1 6I1      -0.094000
     29 C41         -9.3900    -1.8810    85.9870 ca         1 6I1      -0.086000
     30 C42        -13.3420    -4.7610    87.3490 ca         1 6I1      -0.094000
     31 C43        -13.6010    -3.4750    87.8540 ca         1 6I1      -0.106000
     32 C44        -12.6810    -2.4340    87.6410 ca         1 6I1      -0.093000
     33 N16         -1.3560    -0.7410    85.3800 n          1 6I1      -0.300000
     34 N18         -3.4370    -1.3430    84.3530 n          1 6I1      -0.367400
     35 O7           4.2630    -3.9250    80.4630 oh         1 6I1      -0.540100
     36 O10          1.6160    -3.7660    80.4840 o          1 6I1      -0.597100
     37 O23         -3.4720    -2.5080    82.4100 o          1 6I1      -0.529000
     38 O24         -3.3760    -0.1050    86.2680 o          1 6I1      -0.560000
     39 O27         -7.0250    -2.4150    84.5240 os         1 6I1      -0.361200
     40 O28         -5.1400    -3.4650    85.3080 o          1 6I1      -0.445000
     41 H1          -2.1150    -4.5200    81.9440 hc         1 6I1       0.061700
     42 H2          -1.6380    -3.3970    80.6490 hc         1 6I1       0.061700
     43 H3          -0.6340    -4.7800    81.0910 hc         1 6I1       0.061700
     44 H4          -1.2740     0.8640    86.8210 h1         1 6I1       0.060367
     45 H5          -0.1760    -0.5050    87.1330 h1         1 6I1       0.060367
     46 H6           0.1750     0.6700    85.8290 h1         1 6I1       0.060367
     47 H7           5.5360    -6.1910    81.5150 hc         1 6I1       0.082200
     48 H8           6.2190    -4.6170    81.8990 hc         1 6I1       0.082200
     49 H9           6.1440    -6.2290    83.8900 hc         1 6I1       0.056700
     50 H10          5.3510    -4.6790    84.1860 hc         1 6I1       0.056700
     51 H11          3.8580    -6.6160    84.9580 hc         1 6I1       0.074200
     52 H12          3.9500    -7.2460    83.3030 hc         1 6I1       0.074200
     53 H15          2.5820    -2.5450    83.7960 ha         1 6I1       0.120000
     54 H16          1.3270    -1.2020    85.3700 ha         1 6I1       0.127000
     55 H17         -5.3160    -0.4290    84.9330 h1         1 6I1       0.103700
     56 H18         -5.2640    -1.0160    83.2840 h1         1 6I1       0.103700
     57 H19         -6.7840    -4.9200    83.6670 ha         1 6I1       0.135000
     58 H20         -8.4110    -6.7460    84.0570 ha         1 6I1       0.119000
     59 H21        -10.5240    -7.5400    85.0100 ha         1 6I1       0.115000
     60 H22        -12.6060    -7.1050    86.2820 ha         1 6I1       0.114000
     61 H23        -10.7690    -0.6410    87.0930 ha         1 6I1       0.115000
     62 H24         -8.6900    -1.0630    85.8330 ha         1 6I1       0.122000
     63 H25        -14.0600    -5.5600    87.5190 ha         1 6I1       0.114000
     64 H26        -14.5160    -3.2850    88.4110 ha         1 6I1       0.114000
     65 H27        -12.8910    -1.4420    88.0360 ha         1 6I1       0.115000
     66 H28          3.3470    -3.6870    80.1680 ho         1 6I1       0.548000
     67 C22         -0.6200     0.1200    86.3480 c3         1 6I1       0.086300
     68 C8           1.7090    -3.9580    81.6920 c          1 6I1       0.638900
     69 C25         -4.9390    -1.2450    84.3060 c3         1 6I1       0.040000
     70 O20          1.7090    -5.5420    84.1070 o          1 6I1      -0.535100
@<TRIPOS>BOND
     1     1    14 ar  
     2     1    15 ar  
     3     1    33 1   
     4     2     4 1   
     5     2    12 ar  
     6     2    15 ar  
     7     3    33 1   
     8     3    34 1   
     9     3    38 2   
    10     4    41 1   
    11     4    42 1   
    12     4    43 1   
    13     5    39 1   
    14     5    40 2   
    15     5    69 1   
    16     6     7 1   
    17     6    11 1   
    18     6    47 1   
    19     6    48 1   
    20     7     8 1   
    21     7    49 1   
    22     7    50 1   
    23     8     9 1   
    24     8    51 1   
    25     8    52 1   
    26     9    10 1   
    27     9    70 2   
    28    10    11 2   
    29    10    68 1   
    30    11    35 1   
    31    12    13 ar  
    32    12    68 1   
    33    13    14 ar  
    34    13    53 1   
    35    14    54 1   
    36    15    16 1   
    37    16    34 1   
    38    16    37 2   
    39    17    18 ar  
    40    17    22 ar  
    41    17    39 1   
    42    18    19 ar  
    43    18    57 1   
    44    19    20 ar  
    45    19    58 1   
    46    20    21 ar  
    47    20    23 ar  
    48    21    22 ar  
    49    21    26 ar  
    50    22    29 ar  
    51    23    24 ar  
    52    23    59 1   
    53    24    25 ar  
    54    24    60 1   
    55    25    26 ar  
    56    25    30 ar  
    57    26    27 ar  
    58    27    28 ar  
    59    27    32 ar  
    60    28    29 ar  
    61    28    61 1   
    62    29    62 1   
    63    30    31 ar  
    64    30    63 1   
    65    31    32 ar  
    66    31    64 1   
    67    32    65 1   
    68    33    67 1   
    69    34    69 1   
    70    35    66 1   
    71    36    68 2   
    72    44    67 1   
    73    45    67 1   
    74    46    67 1   
    75    55    69 1   
    76    56    69 1   
@<TRIPOS>SUBSTRUCTURE
     1 6I1         1 TEMP              0 ****  ****    0 ROOT
