@<TRIPOS>MOLECULE
6I3
   51    53     1     0     0
SMALL
abcg2


@<TRIPOS>ATOM
      1 C10         -4.0390    23.8910   -31.9890 c          1 6I3       0.617100
      2 C17         -6.0250    22.6370   -27.2730 ca         1 6I3      -0.074200
      3 C20         -5.1160    20.2160   -26.3370 ca         1 6I3      -0.125000
      4 C21         -4.3520    20.8740   -27.2920 ca         1 6I3      -0.053000
      5 C24         -6.1800    18.4040   -31.4780 ca         1 6I3       0.134100
      6 C26         -7.1000    19.2180   -29.4500 c3         1 6I3       0.150900
      7 C01         -7.5630    15.8530   -35.3150 c3         1 6I3       0.146900
      8 C03         -6.8800    17.1660   -33.4370 ca         1 6I3       0.131100
      9 C04         -6.3660    18.1790   -34.2500 ca         1 6I3      -0.199000
     10 C05         -5.7590    19.2850   -33.6800 ca         1 6I3      -0.034000
     11 C06         -5.6450    19.4190   -32.2950 ca         1 6I3      -0.173900
     12 C07         -5.0010    20.5590   -31.6660 ce         1 6I3       0.383800
     13 C12         -3.5820    24.8470   -30.8970 c3         1 6I3      -0.039400
     14 C14         -5.1200    23.9730   -28.7800 cc         1 6I3       0.437700
     15 C16         -4.8140    22.1030   -27.7590 ca         1 6I3       0.076400
     16 C18         -6.7940    21.9860   -26.3150 ca         1 6I3      -0.113000
     17 C19         -6.3160    20.7630   -25.8560 ca         1 6I3      -0.098000
     18 C27         -6.8030    17.2890   -32.0360 ca         1 6I3       0.050100
     19 C29         -8.6930    16.1410   -31.1610 c3         1 6I3       0.148900
     20 N09         -4.1350    22.6110   -31.5520 ns         1 6I3      -0.286900
     21 N15         -4.2690    22.9690   -28.6970 nd         1 6I3      -0.632100
     22 N22         -6.2020    23.8330   -27.9530 na         1 6I3      -0.168600
     23 O11         -4.3040    24.2720   -33.1220 o          1 6I3      -0.550100
     24 O25         -6.0560    18.4860   -30.1150 os         1 6I3      -0.359100
     25 O28         -7.2640    16.2980   -31.2130 os         1 6I3      -0.340100
     26 S13         -4.9700    25.3690   -29.8290 ss         1 6I3      -0.208200
     27 H1          -4.7830    19.2590   -25.9560 ha         1 6I3       0.122000
     28 H2          -3.4280    20.4510   -27.6660 ha         1 6I3       0.134000
     29 H3          -6.8500    19.2150   -28.3920 h1         1 6I3       0.038700
     30 H4          -7.1390    20.2480   -29.8110 h1         1 6I3       0.038700
     31 H5          -8.0670    18.7380   -29.6090 h1         1 6I3       0.038700
     32 H6          -8.0510    14.8910   -35.4500 h1         1 6I3       0.045367
     33 H7          -8.1720    16.6420   -35.7600 h1         1 6I3       0.045367
     34 H8          -6.5780    15.8370   -35.7850 h1         1 6I3       0.045367
     35 H9          -6.4200    18.0950   -35.3240 ha         1 6I3       0.123000
     36 H10         -5.3480    20.0550   -34.3170 ha         1 6I3       0.139000
     37 H11         -4.7730    20.4670   -30.6040 h4         1 6I3       0.006800
     38 H12         -2.8000    24.4250   -30.2680 h1         1 6I3       0.109700
     39 H13         -3.2300    25.7660   -31.3580 h1         1 6I3       0.109700
     40 H14         -7.7190    22.4040   -25.9410 ha         1 6I3       0.120000
     41 H15         -6.8850    20.2200   -25.1120 ha         1 6I3       0.117000
     42 H16         -8.2160    24.1990   -27.5870 h1         1 6I3       0.060367
     43 H17         -7.1140    25.4340   -26.9380 h1         1 6I3       0.060367
     44 H18         -7.4370    25.3450   -28.6840 h1         1 6I3       0.060367
     45 H19         -8.8850    15.3770   -30.4110 h1         1 6I3       0.038033
     46 H20         -9.1660    17.0790   -30.8600 h1         1 6I3       0.038033
     47 H21         -9.0870    15.8230   -32.1260 h1         1 6I3       0.038033
     48 H22         -3.9880    22.4500   -30.5490 hn         1 6I3       0.342500
     49 C23         -7.3040    24.7620   -27.7750 c3         1 6I3       0.065900
     50 N08         -4.7280    21.6370   -32.3050 n2         1 6I3      -0.417300
     51 O02         -7.4500    16.0320   -33.9010 os         1 6I3      -0.340100
@<TRIPOS>BOND
     1     1    13 1   
     2     1    20 1   
     3     1    23 2   
     4     2    15 ar  
     5     2    16 ar  
     6     2    22 1   
     7     3     4 ar  
     8     3    17 ar  
     9     3    27 1   
    10     4    15 ar  
    11     4    28 1   
    12     5    11 ar  
    13     5    18 ar  
    14     5    24 1   
    15     6    24 1   
    16     6    29 1   
    17     6    30 1   
    18     6    31 1   
    19     7    32 1   
    20     7    33 1   
    21     7    34 1   
    22     7    51 1   
    23     8     9 ar  
    24     8    18 ar  
    25     8    51 1   
    26     9    10 ar  
    27     9    35 1   
    28    10    11 ar  
    29    10    36 1   
    30    11    12 1   
    31    12    37 1   
    32    12    50 2   
    33    13    26 1   
    34    13    38 1   
    35    13    39 1   
    36    14    21 2   
    37    14    22 1   
    38    14    26 1   
    39    15    21 1   
    40    16    17 ar  
    41    16    40 1   
    42    17    41 1   
    43    18    25 1   
    44    19    25 1   
    45    19    45 1   
    46    19    46 1   
    47    19    47 1   
    48    20    48 1   
    49    20    50 1   
    50    22    49 1   
    51    42    49 1   
    52    43    49 1   
    53    44    49 1   
@<TRIPOS>SUBSTRUCTURE
     1 6I3         1 TEMP              0 ****  ****    0 ROOT
