@<TRIPOS>MOLECULE
6I3
   51    53     1     0     0
SMALL
No Charge or Current Charge


@<TRIPOS>ATOM
      1 C10         -4.1230    23.9950   -31.8560 c          1 6I3       0.617100
      2 C17         -5.5890    22.3360   -27.4820 ca         1 6I3      -0.074200
      3 C20         -4.2690    20.0240   -26.7100 ca         1 6I3      -0.125000
      4 C21         -3.5730    21.0160   -27.4360 ca         1 6I3      -0.053000
      5 C24         -6.7850    18.9430   -31.2300 ca         1 6I3       0.134100
      6 C26         -8.3680    19.9030   -29.6410 c3         1 6I3       0.150900
      7 C01         -7.3450    15.8060   -35.0060 c3         1 6I3       0.146900
      8 C03         -7.0640    17.3790   -33.1010 ca         1 6I3       0.131100
      9 C04         -6.1220    18.1380   -33.8330 ca         1 6I3      -0.199000
     10 C05         -5.5150    19.2700   -33.2740 ca         1 6I3      -0.034000
     11 C06         -5.8420    19.6860   -31.9700 ca         1 6I3      -0.173900
     12 C07         -5.2020    20.8950   -31.3660 ce         1 6I3       0.383800
     13 C12         -3.6720    25.1510   -30.9520 c3         1 6I3      -0.039400
     14 C14         -4.8490    24.0560   -28.6270 cc         1 6I3       0.437700
     15 C16         -4.2650    22.1750   -27.8130 ca         1 6I3       0.076400
     16 C18         -6.3140    21.3740   -26.7640 ca         1 6I3      -0.113000
     17 C19         -5.6330    20.2010   -26.3760 ca         1 6I3      -0.098000
     18 C27         -7.3990    17.7810   -31.7710 ca         1 6I3       0.050100
     19 C29         -8.9920    15.8920   -31.2890 c3         1 6I3       0.148900
     20 N09         -3.8030    22.7250   -31.3900 ns         1 6I3      -0.286900
     21 N15         -3.7730    23.2550   -28.5490 nd         1 6I3      -0.632100
     22 N22         -5.9760    23.5400   -27.9970 na         1 6I3      -0.168600
     23 O11         -4.7360    24.1860   -32.9010 o          1 6I3      -0.550100
     24 O25         -7.0750    19.3520   -29.9450 os         1 6I3      -0.359100
     25 O28         -8.2830    17.0930   -30.9370 os         1 6I3      -0.340100
     26 S13         -4.9180    25.5100   -29.6170 ss         1 6I3      -0.208200
     27 H1          -3.7530    19.1150   -26.4080 ha         1 6I3       0.122000
     28 H2          -2.5270    20.8850   -27.7000 ha         1 6I3       0.134000
     29 H3          -8.4180    20.1950   -28.5850 h1         1 6I3       0.038700
     30 H4          -8.5590    20.7950   -30.2510 h1         1 6I3       0.038700
     31 H5          -9.1680    19.1780   -29.8310 h1         1 6I3       0.038700
     32 H6          -7.9240    14.9040   -35.2400 h1         1 6I3       0.045367
     33 H7          -7.6010    16.5740   -35.7470 h1         1 6I3       0.045367
     34 H8          -6.2800    15.5590   -35.1050 h1         1 6I3       0.045367
     35 H9          -5.8380    17.8640   -34.8440 ha         1 6I3       0.123000
     36 H10         -4.7920    19.8270   -33.8680 ha         1 6I3       0.139000
     37 H11         -5.5720    21.2280   -30.3940 h4         1 6I3       0.006800
     38 H12         -2.7010    24.9050   -30.5070 h1         1 6I3       0.109700
     39 H13         -3.5500    26.0390   -31.5830 h1         1 6I3       0.109700
     40 H14         -7.3630    21.5180   -26.5160 ha         1 6I3       0.120000
     41 H15         -6.1600    19.4290   -25.8200 ha         1 6I3       0.117000
     42 H16         -7.9760    23.4920   -28.6660 h1         1 6I3       0.060367
     43 H17         -7.7660    23.9210   -26.9420 h1         1 6I3       0.060367
     44 H18         -7.3780    25.1140   -28.2090 h1         1 6I3       0.060367
     45 H19         -9.6150    15.5630   -30.4490 h1         1 6I3       0.038033
     46 H20         -9.6540    16.0640   -32.1480 h1         1 6I3       0.038033
     47 H21         -8.2940    15.0790   -31.5260 h1         1 6I3       0.038033
     48 H22         -3.3410    22.7100   -30.4790 hn         1 6I3       0.342500
     49 C23         -7.3570    24.0480   -27.9510 c3         1 6I3       0.065900
     50 N08         -4.2510    21.5470   -31.9640 n2         1 6I3      -0.417300
     51 O02         -7.6450    16.2580   -33.6730 os         1 6I3      -0.340100
@<TRIPOS>BOND
     1     1    13 1   
     2     1    20 1   
     3     1    23 2   
     4     2    15 ar  
     5     2    16 ar  
     6     2    22 1   
     7     3     4 ar  
     8     3    17 ar  
     9     3    27 1   
    10     4    15 ar  
    11     4    28 1   
    12     5    11 ar  
    13     5    18 ar  
    14     5    24 1   
    15     6    24 1   
    16     6    29 1   
    17     6    30 1   
    18     6    31 1   
    19     7    32 1   
    20     7    33 1   
    21     7    34 1   
    22     7    51 1   
    23     8     9 ar  
    24     8    18 ar  
    25     8    51 1   
    26     9    10 ar  
    27     9    35 1   
    28    10    11 ar  
    29    10    36 1   
    30    11    12 1   
    31    12    37 1   
    32    12    50 2   
    33    13    26 1   
    34    13    38 1   
    35    13    39 1   
    36    14    21 2   
    37    14    22 1   
    38    14    26 1   
    39    15    21 1   
    40    16    17 ar  
    41    16    40 1   
    42    17    41 1   
    43    18    25 1   
    44    19    25 1   
    45    19    45 1   
    46    19    46 1   
    47    19    47 1   
    48    20    48 1   
    49    20    50 1   
    50    22    49 1   
    51    42    49 1   
    52    43    49 1   
    53    44    49 1   
@<TRIPOS>SUBSTRUCTURE
     1 6I3         1 TEMP              0 ****  ****    0 ROOT
