@<TRIPOS>MOLECULE
6I4
   31    34     1     0     0
SMALL
No Charge or Current Charge


@<TRIPOS>ATOM
      1 C1          35.9230    39.1810    62.7300 ca         1 6I4      -0.073000
      2 C2          35.9210    38.4090    63.9200 ca         1 6I4      -0.144000
      3 C3          35.1300    37.2430    64.0240 ca         1 6I4      -0.052000
      4 C4          35.1300    38.8050    61.6210 ca         1 6I4      -0.079300
      5 C5          34.3630    37.6410    61.7600 ca         1 6I4       0.008800
      6 C6          34.3480    36.8720    62.9150 cp         1 6I4      -0.081000
      7 C8          35.1240    39.6080    60.3520 cx         1 6I4      -0.086400
      8 C9          34.9580    41.1110    60.3640 cx         1 6I4      -0.125900
      9 C10         33.8550    40.2360    59.8220 cx         1 6I4      -0.125900
     10 C11         32.9120    35.8450    61.3980 ca         1 6I4       0.421500
     11 C12         33.4430    35.7530    62.6910 cp         1 6I4      -0.132000
     12 C13         33.0690    34.6880    63.5260 ca         1 6I4      -0.015000
     13 C14         32.1570    33.7600    62.9890 ca         1 6I4      -0.204000
     14 C15         31.6710    33.9350    61.6710 ca         1 6I4       0.388300
     15 C17         30.6920    32.9480    61.0660 c3         1 6I4      -0.147400
     16 N16         32.0420    34.9670    60.8720 nb         1 6I4      -0.703000
     17 N7          33.4930    36.9980    60.8670 na         1 6I4      -0.332300
     18 H1          36.5430    40.0720    62.6740 ha         1 6I4       0.113000
     19 H2          36.5370    38.7160    64.7620 ha         1 6I4       0.114000
     20 H3          35.1270    36.6480    64.9350 ha         1 6I4       0.116000
     21 H4          35.8100    39.2030    59.6120 hc         1 6I4       0.083700
     22 H5          35.5430    41.6900    59.6530 hc         1 6I4       0.073950
     23 H6          34.7890    41.6010    61.3200 hc         1 6I4       0.073950
     24 H7          32.9500    40.1390    60.4180 hc         1 6I4       0.073950
     25 H8          33.6950    40.2270    58.7470 hc         1 6I4       0.073950
     26 H9          33.4630    34.5870    64.5350 ha         1 6I4       0.120000
     27 H10         31.8290    32.9120    63.5840 ha         1 6I4       0.122000
     28 H11         29.9250    33.4590    60.4730 hc         1 6I4       0.051700
     29 H12         31.2110    32.2400    60.4100 hc         1 6I4       0.051700
     30 H13         30.1770    32.3700    61.8430 hc         1 6I4       0.051700
     31 H14         33.2960    37.3230    59.9320 hn         1 6I4       0.366000
@<TRIPOS>BOND
     1     1     2 ar  
     2     1     4 ar  
     3     1    18 1   
     4     2     3 ar  
     5     2    19 1   
     6     3     6 ar  
     7     3    20 1   
     8     4     5 ar  
     9     4     7 1   
    10     5     6 ar  
    11     5    17 1   
    12     6    11 1   
    13     7     8 1   
    14     7     9 1   
    15     7    21 1   
    16     8     9 1   
    17     8    22 1   
    18     8    23 1   
    19     9    24 1   
    20     9    25 1   
    21    10    11 ar  
    22    10    16 ar  
    23    10    17 1   
    24    11    12 ar  
    25    12    13 ar  
    26    12    26 1   
    27    13    14 ar  
    28    13    27 1   
    29    14    15 1   
    30    14    16 ar  
    31    15    28 1   
    32    15    29 1   
    33    15    30 1   
    34    17    31 1   
@<TRIPOS>SUBSTRUCTURE
     1 6I4         1 TEMP              0 ****  ****    0 ROOT
