@<TRIPOS>MOLECULE
6I4
   31    34     1     0     0
SMALL
abcg2


@<TRIPOS>ATOM
      1 C1          35.8320    39.1800    62.7000 ca         1 6I4      -0.073000
      2 C2          35.8830    38.4540    63.8960 ca         1 6I4      -0.144000
      3 C3          35.1550    37.2880    64.0520 ca         1 6I4      -0.052000
      4 C4          35.0560    38.7780    61.6230 ca         1 6I4      -0.079300
      5 C5          34.3280    37.5990    61.7960 ca         1 6I4       0.008800
      6 C6          34.3660    36.8510    62.9890 cp         1 6I4      -0.081000
      7 C8          34.9870    39.5140    60.3350 cx         1 6I4      -0.086400
      8 C9          35.0690    41.0060    60.2870 cx         1 6I4      -0.125900
      9 C10         33.7670    40.3270    59.9970 cx         1 6I4      -0.125900
     10 C11         32.9720    35.8510    61.4810 ca         1 6I4       0.421500
     11 C12         33.4950    35.7260    62.7840 cp         1 6I4      -0.132000
     12 C13         33.0830    34.6260    63.5240 ca         1 6I4      -0.015000
     13 C14         32.1950    33.7460    62.9300 ca         1 6I4      -0.204000
     14 C15         31.7360    33.9740    61.6230 ca         1 6I4       0.388300
     15 C17         30.7720    33.0160    60.9910 c3         1 6I4      -0.147400
     16 N16         32.1230    35.0210    60.8990 nb         1 6I4      -0.703000
     17 N7          33.4860    36.9780    60.9050 na         1 6I4      -0.332300
     18 H1          36.4190    40.0860    62.6100 ha         1 6I4       0.113000
     19 H2          36.5040    38.8130    64.7070 ha         1 6I4       0.114000
     20 H3          35.1950    36.7290    64.9780 ha         1 6I4       0.116000
     21 H4          35.4360    38.9900    59.4950 hc         1 6I4       0.083700
     22 H5          35.6090    41.4550    59.4640 hc         1 6I4       0.073950
     23 H6          35.1590    41.5450    61.2220 hc         1 6I4       0.073950
     24 H7          32.9870    40.3970    60.7450 hc         1 6I4       0.073950
     25 H8          33.4080    40.3070    58.9760 hc         1 6I4       0.073950
     26 H9          33.4410    34.4570    64.5320 ha         1 6I4       0.120000
     27 H10         31.8450    32.8760    63.4690 ha         1 6I4       0.122000
     28 H11         30.5030    33.3400    59.9880 hc         1 6I4       0.051700
     29 H12         31.2010    32.0140    60.9240 hc         1 6I4       0.051700
     30 H13         29.8590    32.9310    61.5820 hc         1 6I4       0.051700
     31 H14         33.2520    37.3120    59.9840 hn         1 6I4       0.366000
@<TRIPOS>BOND
     1     1     2 ar  
     2     1     4 ar  
     3     1    18 1   
     4     2     3 ar  
     5     2    19 1   
     6     3     6 ar  
     7     3    20 1   
     8     4     5 ar  
     9     4     7 1   
    10     5     6 ar  
    11     5    17 1   
    12     6    11 1   
    13     7     8 1   
    14     7     9 1   
    15     7    21 1   
    16     8     9 1   
    17     8    22 1   
    18     8    23 1   
    19     9    24 1   
    20     9    25 1   
    21    10    11 ar  
    22    10    16 ar  
    23    10    17 1   
    24    11    12 ar  
    25    12    13 ar  
    26    12    26 1   
    27    13    14 ar  
    28    13    27 1   
    29    14    15 1   
    30    14    16 ar  
    31    15    28 1   
    32    15    29 1   
    33    15    30 1   
    34    17    31 1   
@<TRIPOS>SUBSTRUCTURE
     1 6I4         1 TEMP              0 ****  ****    0 ROOT
