@<TRIPOS>MOLECULE
6I7
   59    62     1     0     0
SMALL
bcc


@<TRIPOS>ATOM
      1 C10        160.7770   166.3950   152.2100 cc         1 6I7      -0.025300
      2 C13        158.9410   165.4630   149.0790 ca         1 6I7      -0.125500
      3 C17        158.5140   165.4100   151.8250 ca         1 6I7      -0.101000
      4 C20        163.3740   168.5680   153.6610 c6         1 6I7      -0.082000
      5 C21        162.7450   169.8820   154.1830 c6         1 6I7      -0.093400
      6 C22        163.0170   171.1250   153.3290 c6         1 6I7       0.175800
      7 C24        162.6650   172.3660   154.1460 c3         1 6I7      -0.097350
      8 C26        165.2200   170.1040   152.8280 c6         1 6I7       0.175800
      9 C28        166.0880   169.9230   154.0750 c3         1 6I7      -0.097350
     10 C01        161.8480   162.3710   151.2340 c3         1 6I7       0.124700
     11 C03        160.9700   163.3930   153.1840 ca         1 6I7       0.155100
     12 C04        160.5270   162.1840   153.7150 ca         1 6I7      -0.215000
     13 C05        159.8830   162.1590   154.9460 ca         1 6I7      -0.080000
     14 C06        159.6670   163.3240   155.6640 ca         1 6I7      -0.165000
     15 C07        160.0900   164.5340   155.1310 ca         1 6I7      -0.073000
     16 C08        160.7270   164.5710   153.9030 ca         1 6I7      -0.036200
     17 C11        159.7280   165.8830   151.3280 ca         1 6I7      -0.011000
     18 C12        159.9260   165.9040   149.9480 ca         1 6I7      -0.101000
     19 C14        157.7450   164.9910   149.5990 ca         1 6I7       0.030400
     20 C16        157.5230   164.9610   150.9660 ca         1 6I7      -0.125500
     21 C18        161.5420   167.5320   152.0900 cd         1 6I7      -0.296300
     22 C19        162.3620   167.5520   153.2370 cd         1 6I7       0.322600
     23 C23        162.1790   171.1410   152.0480 c3         1 6I7      -0.097350
     24 C27        166.1100   170.3960   151.6250 c3         1 6I7      -0.097350
     25 C29        164.3950   168.8480   152.5550 c6         1 6I7      -0.093400
     26 N09        161.1560   165.8090   153.3720 na         1 6I7       0.186300
     27 N30        162.1180   166.5000   153.9950 nc         1 6I7      -0.505800
     28 O25        164.3990   171.2580   153.0090 os         1 6I7      -0.431600
     29 CL1        156.5060   164.4400   148.5220 cl         1 6I7      -0.111400
     30 H1         159.1090   165.4820   148.0110 ha         1 6I7       0.148000
     31 H2         158.3190   165.4090   152.8890 ha         1 6I7       0.143000
     32 H3         163.9100   168.1190   154.5000 hc         1 6I7       0.066700
     33 H4         161.6640   169.7750   154.2980 hc         1 6I7       0.051950
     34 H5         163.1330   170.0700   155.1880 hc         1 6I7       0.051950
     35 H6         161.6110   172.3520   154.4270 hc         1 6I7       0.039367
     36 H7         163.2570   172.4120   155.0610 hc         1 6I7       0.039367
     37 H8         162.8450   173.2770   153.5740 hc         1 6I7       0.039367
     38 H9         165.4940   169.7510   154.9730 hc         1 6I7       0.039367
     39 H10        166.7630   169.0750   153.9540 hc         1 6I7       0.039367
     40 H11        166.6970   170.8120   154.2480 hc         1 6I7       0.039367
     41 H12        162.3690   162.7080   150.3420 h1         1 6I7       0.045033
     42 H13        162.4730   161.6380   151.7520 h1         1 6I7       0.045033
     43 H14        160.9110   161.8940   150.9380 h1         1 6I7       0.045033
     44 H15        160.6890   161.2540   153.1880 ha         1 6I7       0.141000
     45 H16        159.5510   161.2080   155.3430 ha         1 6I7       0.134000
     46 H17        159.1680   163.2980   156.6230 ha         1 6I7       0.141000
     47 H18        159.9210   165.4620   155.6620 ha         1 6I7       0.152000
     48 H19        160.8650   166.2600   149.5440 ha         1 6I7       0.143000
     49 H20        156.5830   164.6020   151.3630 ha         1 6I7       0.148000
     50 H21        161.4840   168.2550   151.2930 ha         1 6I7       0.164000
     51 H22        161.1140   171.1190   152.2880 hc         1 6I7       0.039367
     52 H23        162.3720   172.0530   151.4800 hc         1 6I7       0.039367
     53 H24        162.3820   170.2980   151.3890 hc         1 6I7       0.039367
     54 H25        166.6940   171.3060   151.7800 hc         1 6I7       0.039367
     55 H26        166.8120   169.5770   151.4580 hc         1 6I7       0.039367
     56 H27        165.5160   170.5200   150.7190 hc         1 6I7       0.039367
     57 H28        163.9010   168.9420   151.5850 hc         1 6I7       0.051950
     58 H29        165.0750   167.9970   152.4600 hc         1 6I7       0.051950
     59 O02        161.6240   163.5240   152.0230 os         1 6I7      -0.302900
@<TRIPOS>BOND
     1     1    17 1   
     2     1    21 2   
     3     1    26 1   
     4     2    18 ar  
     5     2    19 ar  
     6     2    30 1   
     7     3    17 ar  
     8     3    20 ar  
     9     3    31 1   
    10     4     5 1   
    11     4    22 1   
    12     4    25 1   
    13     4    32 1   
    14     5     6 1   
    15     5    33 1   
    16     5    34 1   
    17     6     7 1   
    18     6    23 1   
    19     6    28 1   
    20     7    35 1   
    21     7    36 1   
    22     7    37 1   
    23     8     9 1   
    24     8    24 1   
    25     8    25 1   
    26     8    28 1   
    27     9    38 1   
    28     9    39 1   
    29     9    40 1   
    30    10    41 1   
    31    10    42 1   
    32    10    43 1   
    33    10    59 1   
    34    11    12 ar  
    35    11    16 ar  
    36    11    59 1   
    37    12    13 ar  
    38    12    44 1   
    39    13    14 ar  
    40    13    45 1   
    41    14    15 ar  
    42    14    46 1   
    43    15    16 ar  
    44    15    47 1   
    45    16    26 1   
    46    17    18 ar  
    47    18    48 1   
    48    19    20 ar  
    49    19    29 1   
    50    20    49 1   
    51    21    22 1   
    52    21    50 1   
    53    22    27 2   
    54    23    51 1   
    55    23    52 1   
    56    23    53 1   
    57    24    54 1   
    58    24    55 1   
    59    24    56 1   
    60    25    57 1   
    61    25    58 1   
    62    26    27 1   
@<TRIPOS>SUBSTRUCTURE
     1 6I7         1 TEMP              0 ****  ****    0 ROOT
