@<TRIPOS>MOLECULE
6I7
   59    62     1     0     0
SMALL
No Charge or Current Charge


@<TRIPOS>ATOM
      1 C10        160.6820   166.2200   152.2630 cc         1 6I7      -0.076000
      2 C13        158.9390   165.4680   148.9890 ca         1 6I7      -0.107500
      3 C17        158.5780   164.9690   151.7290 ca         1 6I7      -0.083000
      4 C20        163.0770   168.7230   153.5490 c6         1 6I7      -0.082000
      5 C21        162.2690   170.0460   153.7210 c6         1 6I7      -0.093400
      6 C22        163.1400   171.3340   153.5230 c6         1 6I7       0.199000
      7 C24        162.8650   172.3680   154.6500 c3         1 6I7      -0.097350
      8 C26        165.1360   170.0310   152.7400 c6         1 6I7       0.199000
      9 C28        166.3540   169.4830   153.5370 c3         1 6I7      -0.097350
     10 C01        161.9300   162.1520   151.4350 c3         1 6I7       0.147900
     11 C03        160.9970   163.3110   153.4130 ca         1 6I7       0.155100
     12 C04        160.5750   162.0960   154.0000 ca         1 6I7      -0.197000
     13 C05        159.8900   162.1010   155.2270 ca         1 6I7      -0.062000
     14 C06        159.6220   163.3150   155.8770 ca         1 6I7      -0.147000
     15 C07        160.0350   164.5270   155.3010 ca         1 6I7      -0.055000
     16 C08        160.7180   164.5340   154.0680 ca         1 6I7      -0.036200
     17 C11        159.7010   165.7090   151.3010 ca         1 6I7      -0.011000
     18 C12        159.8690   165.9580   149.9220 ca         1 6I7      -0.083000
     19 C14        157.8300   164.7270   149.4260 ca         1 6I7       0.122000
     20 C16        157.6480   164.4790   150.7950 ca         1 6I7      -0.107500
     21 C18        161.3650   167.3930   152.1260 cd         1 6I7      -0.213000
     22 C19        162.1580   167.5450   153.2940 cd         1 6I7       0.257300
     23 C23        162.8550   172.0420   152.1620 c3         1 6I7      -0.097350
     24 C27        165.7000   170.7300   151.4620 c3         1 6I7      -0.097350
     25 C29        164.1310   168.8780   152.4220 c6         1 6I7      -0.093400
     26 N09        161.0960   165.7550   153.5060 na         1 6I7       0.237000
     27 N30        162.0150   166.5490   154.1550 nc         1 6I7      -0.505800
     28 O25        164.5520   171.0130   153.6450 os         1 6I7      -0.478000
     29 Cl1        156.6670   164.1130   148.2580 cl         1 6I7      -0.203000
     30 H1         159.0800   165.6600   147.9280 ha         1 6I7       0.130000
     31 H2         158.4100   164.7800   152.7850 ha         1 6I7       0.125000
     32 H3         163.6210   168.5420   154.4880 hc         1 6I7       0.066700
     33 H4         161.4310   170.0680   153.0110 hc         1 6I7       0.051950
     34 H5         161.8010   170.0430   154.7150 hc         1 6I7       0.051950
     35 H6         161.8100   172.6690   154.6670 hc         1 6I7       0.039367
     36 H7         163.1050   171.9520   155.6360 hc         1 6I7       0.039367
     37 H8         163.4680   173.2740   154.5170 hc         1 6I7       0.039367
     38 H9         166.0400   169.0130   154.4760 hc         1 6I7       0.039367
     39 H10        166.9050   168.7300   152.9610 hc         1 6I7       0.039367
     40 H11        167.0600   170.2840   153.7890 hc         1 6I7       0.039367
     41 H12        162.4670   162.4070   150.5130 h1         1 6I7       0.045033
     42 H13        162.5430   161.4360   151.9970 h1         1 6I7       0.045033
     43 H14        160.9860   161.6660   151.1550 h1         1 6I7       0.045033
     44 H15        160.7720   161.1400   153.5240 ha         1 6I7       0.123000
     45 H16        159.5690   161.1630   155.6750 ha         1 6I7       0.116000
     46 H17        159.0930   163.3170   156.8280 ha         1 6I7       0.123000
     47 H18        159.8200   165.4660   155.8090 ha         1 6I7       0.134000
     48 H19        160.7300   166.5200   149.5680 ha         1 6I7       0.125000
     49 H20        156.7850   163.9110   151.1330 ha         1 6I7       0.130000
     50 H21        161.3060   168.0880   151.2970 ha         1 6I7       0.146000
     51 H22        161.8860   172.5540   152.1830 hc         1 6I7       0.039367
     52 H23        163.6170   172.7970   151.9330 hc         1 6I7       0.039367
     53 H24        162.8070   171.3320   151.3300 hc         1 6I7       0.039367
     54 H25        166.2220   171.6600   151.7170 hc         1 6I7       0.039367
     55 H26        166.4200   170.0820   150.9460 hc         1 6I7       0.039367
     56 H27        164.9270   170.9690   150.7270 hc         1 6I7       0.039367
     57 H28        163.6210   169.0760   151.4690 hc         1 6I7       0.051950
     58 H29        164.6700   167.9320   152.2760 hc         1 6I7       0.051950
     59 O02        161.6830   163.3360   152.2110 os         1 6I7      -0.326100
@<TRIPOS>BOND
     1     1    17 1   
     2     1    21 2   
     3     1    26 1   
     4     2    18 ar  
     5     2    19 ar  
     6     2    30 1   
     7     3    17 ar  
     8     3    20 ar  
     9     3    31 1   
    10     4     5 1   
    11     4    22 1   
    12     4    25 1   
    13     4    32 1   
    14     5     6 1   
    15     5    33 1   
    16     5    34 1   
    17     6     7 1   
    18     6    23 1   
    19     6    28 1   
    20     7    35 1   
    21     7    36 1   
    22     7    37 1   
    23     8     9 1   
    24     8    24 1   
    25     8    25 1   
    26     8    28 1   
    27     9    38 1   
    28     9    39 1   
    29     9    40 1   
    30    10    41 1   
    31    10    42 1   
    32    10    43 1   
    33    10    59 1   
    34    11    12 ar  
    35    11    16 ar  
    36    11    59 1   
    37    12    13 ar  
    38    12    44 1   
    39    13    14 ar  
    40    13    45 1   
    41    14    15 ar  
    42    14    46 1   
    43    15    16 ar  
    44    15    47 1   
    45    16    26 1   
    46    17    18 ar  
    47    18    48 1   
    48    19    20 ar  
    49    19    29 1   
    50    20    49 1   
    51    21    22 1   
    52    21    50 1   
    53    22    27 2   
    54    23    51 1   
    55    23    52 1   
    56    23    53 1   
    57    24    54 1   
    58    24    55 1   
    59    24    56 1   
    60    25    57 1   
    61    25    58 1   
    62    26    27 1   
@<TRIPOS>SUBSTRUCTURE
     1 6I7         1 TEMP              0 ****  ****    0 ROOT
