@<TRIPOS>MOLECULE
6I9
   52    55     1     0     0
SMALL
No Charge or Current Charge


@<TRIPOS>ATOM
      1 C4          18.3600    25.3320   -21.9890 c3         1 6I9      -0.083600
      2 C5          17.4990    25.4180   -19.5740 c3         1 6I9      -0.083600
      3 C7          16.9930    20.7960   -20.9490 ca         1 6I9      -0.032000
      4 C8          17.8160    19.7010   -20.6350 ca         1 6I9      -0.152000
      5 C10         18.1600    17.2470   -20.4510 ca         1 6I9       0.368000
      6 C13         21.5380    17.3790   -19.7120 cy         1 6I9      -0.112400
      7 C15         17.5900    15.9740   -20.5400 ca         1 6I9      -0.257000
      8 C17         15.5990    14.4680   -21.0810 cp         1 6I9      -0.150500
      9 C20         14.3460    11.9090   -21.3140 ca         1 6I9      -0.067300
     10 C21         13.6800    10.5470   -21.4330 c3         1 6I9      -0.046800
     11 C22         13.5710    13.0640   -21.1120 ca         1 6I9      -0.120000
     12 C26         15.1990    19.2350   -21.4830 ca         1 6I9      -0.075000
     13 O1          15.9020    23.5910   -21.4400 o          1 6I9      -0.584100
     14 C2          17.0350    23.3690   -21.0280 c          1 6I9       0.602100
     15 C3          18.0250    24.5160   -20.7160 c3         1 6I9      -0.136700
     16 N6          17.5480    22.0970   -20.8000 ns         1 6I9      -0.147000
     17 C9          17.3480    18.3680   -20.7560 ca         1 6I9      -0.087000
     18 N11         19.4930    17.3600   -20.0760 nn         1 6I9      -0.814400
     19 C12         20.6350    17.9120   -20.8670 cy         1 6I9       0.204300
     20 C14         20.3930    16.3600   -19.4260 cy         1 6I9       0.204300
     21 C16         16.2560    15.8190   -20.9580 cp         1 6I9       0.454500
     22 C18         16.3610    13.2860   -21.2880 ca         1 6I9      -0.079000
     23 C19         15.7430    12.0280   -21.4010 ca         1 6I9      -0.120000
     24 C23         14.1860    14.3230   -21.0000 ca         1 6I9      -0.079000
     25 N24         15.5010    16.8910   -21.2650 nb         1 6I9      -0.695000
     26 C25         16.0160    18.1340   -21.1690 ca         1 6I9       0.283000
     27 C27         15.6750    20.5520   -21.3820 ca         1 6I9      -0.104000
     28 H1          19.1080    26.1030   -21.7700 hc         1 6I9       0.045533
     29 H2          18.7650    24.6780   -22.7710 hc         1 6I9       0.045533
     30 H3          17.4640    25.8260   -22.3850 hc         1 6I9       0.045533
     31 H4          17.3030    24.8250   -18.6710 hc         1 6I9       0.045533
     32 H5          18.2340    26.1910   -19.3190 hc         1 6I9       0.045533
     33 H6          16.5660    25.9170   -19.8650 hc         1 6I9       0.045533
     34 H7          18.8210    19.8970   -20.2760 ha         1 6I9       0.105000
     35 H9          21.7060    18.1010   -18.9060 hc         1 6I9       0.063700
     36 H10         18.1770    15.1010   -20.2870 ha         1 6I9       0.121000
     37 H11         13.5900    10.0700   -20.4500 hc         1 6I9       0.042367
     38 H12         12.6730    10.6290   -21.8590 hc         1 6I9       0.042367
     39 H13         14.2570     9.8750   -22.0800 hc         1 6I9       0.042367
     40 H14         12.4890    12.9880   -21.0400 ha         1 6I9       0.110500
     41 H15         14.1760    19.0610   -21.8060 ha         1 6I9       0.134000
     42 H16         18.9640    24.0680   -20.3650 hc         1 6I9       0.044700
     43 H17         18.5020    22.0940   -20.4620 hn         1 6I9       0.145000
     44 H18         20.8080    17.4130   -21.8290 h1         1 6I9       0.055450
     45 H19         20.6800    18.9990   -20.9910 h1         1 6I9       0.055450
     46 H20         20.2190    16.1730   -18.3590 h1         1 6I9       0.055450
     47 H21         20.5040    15.4120   -19.9680 h1         1 6I9       0.055450
     48 H22         17.4420    13.3360   -21.3810 ha         1 6I9       0.120000
     49 H23         16.3560    11.1430   -21.5600 ha         1 6I9       0.110500
     50 H24         13.5560    15.1950   -20.8400 ha         1 6I9       0.120000
     51 H25         14.9990    21.3630   -21.6350 ha         1 6I9       0.152000
     52 H8          22.4970    16.9490   -20.0140 hc         1 6I9       0.063700
@<TRIPOS>BOND
     1     1    15 1   
     2     1    28 1   
     3     1    29 1   
     4     1    30 1   
     5     2    15 1   
     6     2    31 1   
     7     2    32 1   
     8     2    33 1   
     9     3     4 ar  
    10     3    16 1   
    11     3    27 ar  
    12     4    17 ar  
    13     4    34 1   
    14     5     7 ar  
    15     5    17 ar  
    16     5    18 1   
    17     6    19 1   
    18     6    20 1   
    19     6    35 1   
    20     6    52 1   
    21     7    21 ar  
    22     7    36 1   
    23     8    21 1   
    24     8    22 ar  
    25     8    24 ar  
    26     9    10 1   
    27     9    11 ar  
    28     9    23 ar  
    29    10    37 1   
    30    10    38 1   
    31    10    39 1   
    32    11    24 ar  
    33    11    40 1   
    34    12    26 ar  
    35    12    27 ar  
    36    12    41 1   
    37    13    14 2   
    38    14    15 1   
    39    14    16 1   
    40    15    42 1   
    41    16    43 1   
    42    17    26 ar  
    43    18    19 1   
    44    18    20 1   
    45    19    44 1   
    46    19    45 1   
    47    20    46 1   
    48    20    47 1   
    49    21    25 ar  
    50    22    23 ar  
    51    22    48 1   
    52    23    49 1   
    53    24    50 1   
    54    25    26 ar  
    55    27    51 1   
@<TRIPOS>SUBSTRUCTURE
     1 6I9         1 TEMP              0 ****  ****    0 ROOT
