@<TRIPOS>MOLECULE
6I9
   52    55     1     0     0
SMALL
abcg2


@<TRIPOS>ATOM
      1 C4          18.4220    25.2560   -22.0280 c3         1 6I9      -0.083600
      2 C5          17.2420    25.3360   -19.7870 c3         1 6I9      -0.083600
      3 C7          17.0700    20.7810   -20.9430 ca         1 6I9      -0.032000
      4 C8          17.8600    19.7030   -20.5920 ca         1 6I9      -0.152000
      5 C10         18.1820    17.2180   -20.3630 ca         1 6I9       0.368000
      6 C13         21.5680    17.1140   -19.8770 cy         1 6I9      -0.112400
      7 C15         17.5590    15.9790   -20.4690 ca         1 6I9      -0.257000
      8 C17         15.6050    14.5300   -21.0530 cp         1 6I9      -0.150500
      9 C20         14.3730    11.9900   -21.2680 ca         1 6I9      -0.067300
     10 C21         13.7210    10.6380   -21.3500 c3         1 6I9      -0.046800
     11 C22         13.6180    13.1410   -21.0250 ca         1 6I9      -0.120000
     12 C26         15.2930    19.2720   -21.5400 ca         1 6I9      -0.075000
     13 O1          16.1090    23.4210   -21.8270 o          1 6I9      -0.584100
     14 C2          17.1470    23.2740   -21.1860 c          1 6I9       0.602100
     15 C3          18.0130    24.4630   -20.7840 c3         1 6I9      -0.136700
     16 N6          17.6140    22.0660   -20.7660 ns         1 6I9      -0.147000
     17 C9          17.4040    18.3780   -20.7140 ca         1 6I9      -0.087000
     18 N11         19.4580    17.2890   -19.9010 nn         1 6I9      -0.814400
     19 C12         20.5570    18.2350   -20.1990 cy         1 6I9       0.204300
     20 C14         20.3730    16.1420   -19.7730 cy         1 6I9       0.204300
     21 C16         16.2380    15.8680   -20.9380 cp         1 6I9       0.454500
     22 C18         16.3620    13.3800   -21.2970 ca         1 6I9      -0.079000
     23 C19         15.7540    12.1360   -21.4070 ca         1 6I9      -0.120000
     24 C23         14.2200    14.3870   -20.9240 ca         1 6I9      -0.079000
     25 N24         15.5110    16.9170   -21.2950 nb         1 6I9      -0.695000
     26 C25         16.0750    18.1490   -21.1820 ca         1 6I9       0.283000
     27 C27         15.7630    20.5560   -21.4320 ca         1 6I9      -0.104000
     28 H1          19.0470    26.1030   -21.7390 hc         1 6I9       0.045533
     29 H2          18.9860    24.6360   -22.7270 hc         1 6I9       0.045533
     30 H3          17.5400    25.6410   -22.5430 hc         1 6I9       0.045533
     31 H4          16.9680    24.7710   -18.8930 hc         1 6I9       0.045533
     32 H5          17.8580    26.1830   -19.4800 hc         1 6I9       0.045533
     33 H6          16.3300    25.7230   -20.2440 hc         1 6I9       0.045533
     34 H7          18.8460    19.9060   -20.2040 ha         1 6I9       0.105000
     35 H9          22.0970    17.2630   -18.9390 hc         1 6I9       0.063700
     36 H10         18.0910    15.0890   -20.1750 ha         1 6I9       0.121000
     37 H11         13.6050    10.2030   -20.3530 hc         1 6I9       0.042367
     38 H12         12.7260    10.7040   -21.7920 hc         1 6I9       0.042367
     39 H13         14.3200     9.9450   -21.9420 hc         1 6I9       0.042367
     40 H14         12.5430    13.0580   -20.9150 ha         1 6I9       0.110500
     41 H15         14.2890    19.0890   -21.9010 ha         1 6I9       0.134000
     42 H16         18.9160    24.0910   -20.2940 hc         1 6I9       0.044700
     43 H17         18.5030    22.0860   -20.2890 hn         1 6I9       0.145000
     44 H18         20.5600    18.5670   -21.2400 h1         1 6I9       0.055450
     45 H19         20.5930    19.1030   -19.5410 h1         1 6I9       0.055450
     46 H20         20.2650    15.5910   -18.8380 h1         1 6I9       0.055450
     47 H21         20.2920    15.4430   -20.6110 h1         1 6I9       0.055450
     48 H22         17.4330    13.4550   -21.4290 ha         1 6I9       0.120000
     49 H23         16.3620    11.2630   -21.6140 ha         1 6I9       0.110500
     50 H24         13.6170    15.2660   -20.7380 ha         1 6I9       0.120000
     51 H25         15.1460    21.3940   -21.7070 ha         1 6I9       0.152000
     52 H8          22.2790    16.8900   -20.6670 hc         1 6I9       0.063700
@<TRIPOS>BOND
     1     1    15 1   
     2     1    28 1   
     3     1    29 1   
     4     1    30 1   
     5     2    15 1   
     6     2    31 1   
     7     2    32 1   
     8     2    33 1   
     9     3     4 ar  
    10     3    16 1   
    11     3    27 ar  
    12     4    17 ar  
    13     4    34 1   
    14     5     7 ar  
    15     5    17 ar  
    16     5    18 1   
    17     6    19 1   
    18     6    20 1   
    19     6    35 1   
    20     6    52 1   
    21     7    21 ar  
    22     7    36 1   
    23     8    21 1   
    24     8    22 ar  
    25     8    24 ar  
    26     9    10 1   
    27     9    11 ar  
    28     9    23 ar  
    29    10    37 1   
    30    10    38 1   
    31    10    39 1   
    32    11    24 ar  
    33    11    40 1   
    34    12    26 ar  
    35    12    27 ar  
    36    12    41 1   
    37    13    14 2   
    38    14    15 1   
    39    14    16 1   
    40    15    42 1   
    41    16    43 1   
    42    17    26 ar  
    43    18    19 1   
    44    18    20 1   
    45    19    44 1   
    46    19    45 1   
    47    20    46 1   
    48    20    47 1   
    49    21    25 ar  
    50    22    23 ar  
    51    22    48 1   
    52    23    49 1   
    53    24    50 1   
    54    25    26 ar  
    55    27    51 1   
@<TRIPOS>SUBSTRUCTURE
     1 6I9         1 TEMP              0 ****  ****    0 ROOT
