@<TRIPOS>MOLECULE
6IB
   83    85     1     0     0
SMALL
No Charge or Current Charge


@<TRIPOS>ATOM
      1 C10        101.6430    68.4100    82.6410 c3         1 6IB       0.036200
      2 C13         97.3830    67.8920    81.9430 ca         1 6IB      -0.097000
      3 C15         96.8610    70.0220    83.2280 c3         1 6IB      -0.068100
      4 C17        102.2080    67.2130    83.4140 ca         1 6IB      -0.099800
      5 C20        101.5130    66.7530    84.5500 ca         1 6IB      -0.063000
      6 C21         98.4660    62.6000    82.8690 ca         1 6IB      -0.107800
      7 C22        101.9620    65.6320    85.2690 ca         1 6IB      -0.107800
      8 C24        103.3860    66.5440    83.0020 ca         1 6IB       0.150600
      9 C26        101.1750    65.1360    86.4760 c3         1 6IB      -0.023600
     10 C28        103.1290    64.9680    84.8540 ca         1 6IB      -0.059000
     11 C7          98.2800    66.9400    81.4240 ca         1 6IB      -0.087300
     12 C8         100.1520    68.2410    82.3370 ca         1 6IB      -0.087300
     13 C11         97.8510    69.0120    82.6510 ca         1 6IB      -0.094300
     14 C12         99.6700    67.1300    81.6020 ca         1 6IB       0.114100
     15 C14         99.2330    69.1780    82.8490 ca         1 6IB      -0.097000
     16 C16         97.5300    64.5490    81.7140 ca         1 6IB      -0.099800
     17 C18         95.9750    69.4370    84.3560 c3         1 6IB       0.161800
     18 C19         98.5970    63.6590    81.9520 ca         1 6IB      -0.063000
     19 C23         96.3120    64.3770    82.4120 ca         1 6IB       0.150600
     20 C27         97.2490    62.4270    83.5510 ca         1 6IB      -0.059000
     21 C29         96.1790    63.3090    83.3290 ca         1 6IB      -0.196500
     22 C30        103.8400    65.4220    83.7310 ca         1 6IB      -0.196500
     23 C31         99.9400    60.7020    81.9490 c3         1 6IB       0.157300
     24 C32         99.9410    64.3060    86.0610 c3         1 6IB       0.157300
     25 C35         94.0310    65.2050    82.8910 c3         1 6IB       0.148900
     26 C37         99.0490    58.7710    80.6490 c3         1 6IB       0.143100
     27 N4          96.7870    68.8470    85.4440 n7         1 6IB      -0.867400
     28 N5          98.8470    59.7260    81.7550 n7         1 6IB      -0.856400
     29 N6          99.1850    63.8660    87.2510 n7         1 6IB      -0.856400
     30 O1         100.5530    66.2060    81.0900 os         1 6IB      -0.350100
     31 O2          95.2770    65.2640    82.1770 os         1 6IB      -0.344600
     32 O3         104.0650    67.0070    81.8890 os         1 6IB      -0.344600
     33 H1         102.1820    68.5840    81.7040 hc         1 6IB       0.054200
     34 H2         101.8090    69.3170    83.2340 hc         1 6IB       0.054200
     35 H3          96.3130    67.7520    81.8080 ha         1 6IB       0.112000
     36 H4          97.3850    70.9090    83.6030 hc         1 6IB       0.050200
     37 H5          96.2030    70.3840    82.4290 hc         1 6IB       0.050200
     38 H6         100.6060    67.2620    84.8700 ha         1 6IB       0.107000
     39 H7         101.8160    64.5270    87.1250 hc         1 6IB       0.045450
     40 H8         100.8480    65.9920    87.0800 hc         1 6IB       0.045450
     41 H9         103.4860    64.0970    85.4000 ha         1 6IB       0.108500
     42 H10         98.3930    65.3830    79.9140 hc         1 6IB       0.054200
     43 H11         96.7820    65.9400    80.2230 hc         1 6IB       0.054200
     44 H12         99.5940    70.0310    83.4190 ha         1 6IB       0.112000
     45 H13         95.3140    70.2250    84.7440 h1         1 6IB       0.050700
     46 H14         95.3300    68.6630    83.9170 h1         1 6IB       0.050700
     47 H15         99.5380    63.7930    81.4250 ha         1 6IB       0.107000
     48 H16         99.4810    61.0750    84.0380 hc         1 6IB       0.045450
     49 H17        100.5430    62.2590    83.3110 hc         1 6IB       0.045450
     50 H18         97.1320    61.6080    84.2570 ha         1 6IB       0.108500
     51 H19         95.2560    63.1460    83.8770 ha         1 6IB       0.114000
     52 H20        104.7380    64.8860    83.4410 ha         1 6IB       0.114000
     53 H21        100.0950    61.2940    81.0360 h1         1 6IB       0.031200
     54 H22        100.8800    60.1740    82.1620 h1         1 6IB       0.031200
     55 H23         99.3030    64.9150    85.4050 h1         1 6IB       0.031200
     56 H24        100.2800    63.4370    85.4820 h1         1 6IB       0.031200
     57 H25        101.8440    65.6260    79.5570 h1         1 6IB       0.030367
     58 H26        100.4100    66.5350    79.0290 h1         1 6IB       0.030367
     59 H27        101.7530    67.3780    79.8330 h1         1 6IB       0.030367
     60 H28         98.0690    69.2550    87.0880 h1         1 6IB       0.027033
     61 H29         98.2890    70.3420    85.7040 h1         1 6IB       0.027033
     62 H30         96.8670    70.5220    86.7590 h1         1 6IB       0.027033
     63 H31         93.3650    66.0110    82.5590 h1         1 6IB       0.038200
     64 H32         93.5220    64.2490    82.7120 h1         1 6IB       0.038200
     65 H33         94.1940    65.3230    83.9700 h1         1 6IB       0.038200
     66 H34        105.6100    66.8890    80.4880 h1         1 6IB       0.038200
     67 H35        106.0460    66.3650    82.1280 h1         1 6IB       0.038200
     68 H36        105.0290    65.3240    81.0940 h1         1 6IB       0.038200
     69 H37         98.1910    58.0910    80.5660 h1         1 6IB       0.028700
     70 H38         99.1590    59.2990    79.6920 h1         1 6IB       0.028700
     71 H39         99.9500    58.1650    80.8140 h1         1 6IB       0.028700
     72 H40         97.4900    62.7540    87.8900 h1         1 6IB       0.028700
     73 H41         97.2810    63.5930    86.3360 h1         1 6IB       0.028700
     74 H42         98.2820    62.1230    86.4290 h1         1 6IB       0.028700
     75 H43         97.4570    68.2020    85.0060 hn         1 6IB       0.418000
     76 H45         98.7380    59.1910    82.6260 hn         1 6IB       0.403000
     77 H47         98.8740    64.7040    87.7580 hn         1 6IB       0.403000
     78 C9          97.7270    65.6990    80.7250 c3         1 6IB       0.036200
     79 C25         99.6420    61.6610    83.1250 c3         1 6IB      -0.023600
     80 C33        101.1690    66.4500    79.8170 c3         1 6IB       0.153900
     81 C34         97.5410    69.7930    86.2900 c3         1 6IB       0.146100
     82 C36        105.2450    66.3620    81.3780 c3         1 6IB       0.148900
     83 C38         97.9980    63.0410    86.9600 c3         1 6IB       0.143100
@<TRIPOS>BOND
     1     1     4 1   
     2     1    12 1   
     3     1    33 1   
     4     1    34 1   
     5     2    11 ar  
     6     2    13 ar  
     7     2    35 1   
     8     3    13 1   
     9     3    17 1   
    10     3    36 1   
    11     3    37 1   
    12     4     5 ar  
    13     4     8 ar  
    14     5     7 ar  
    15     5    38 1   
    16     6    18 ar  
    17     6    20 ar  
    18     6    79 1   
    19     7     9 1   
    20     7    10 ar  
    21     8    22 ar  
    22     8    32 1   
    23     9    24 1   
    24     9    39 1   
    25     9    40 1   
    26    10    22 ar  
    27    10    41 1   
    28    11    14 ar  
    29    11    78 1   
    30    12    14 ar  
    31    12    15 ar  
    32    13    15 ar  
    33    14    30 1   
    34    15    44 1   
    35    16    18 ar  
    36    16    19 ar  
    37    16    78 1   
    38    17    27 1   
    39    17    45 1   
    40    17    46 1   
    41    18    47 1   
    42    19    21 ar  
    43    19    31 1   
    44    20    21 ar  
    45    20    50 1   
    46    21    51 1   
    47    22    52 1   
    48    23    28 1   
    49    23    53 1   
    50    23    54 1   
    51    23    79 1   
    52    24    29 1   
    53    24    55 1   
    54    24    56 1   
    55    25    31 1   
    56    25    63 1   
    57    25    64 1   
    58    25    65 1   
    59    26    28 1   
    60    26    69 1   
    61    26    70 1   
    62    26    71 1   
    63    27    75 1   
    64    27    81 1   
    65    28    76 1   
    66    29    77 1   
    67    29    83 1   
    68    30    80 1   
    69    32    82 1   
    70    42    78 1   
    71    43    78 1   
    72    48    79 1   
    73    49    79 1   
    74    57    80 1   
    75    58    80 1   
    76    59    80 1   
    77    60    81 1   
    78    61    81 1   
    79    62    81 1   
    80    66    82 1   
    81    67    82 1   
    82    68    82 1   
    83    72    83 1   
    84    73    83 1   
    85    74    83 1   
@<TRIPOS>SUBSTRUCTURE
     1 6IB         1 TEMP              0 ****  ****    0 ROOT
