@<TRIPOS>MOLECULE
6IB
   83    85     1     0     0
SMALL
abcg2


@<TRIPOS>ATOM
      1 C10        101.5090    68.2670    82.7850 c3         1 6IB       0.036200
      2 C13         97.3930    67.6770    81.7600 ca         1 6IB      -0.097000
      3 C15         96.6890    69.6820    83.0950 c3         1 6IB      -0.068100
      4 C17        101.8980    67.1970    83.7810 ca         1 6IB      -0.099800
      5 C20        101.1650    67.0650    84.9510 ca         1 6IB      -0.063000
      6 C21         99.3950    62.1730    81.6890 ca         1 6IB      -0.107800
      7 C22        101.4240    66.0810    85.9030 ca         1 6IB      -0.107800
      8 C24        102.9610    66.3110    83.5570 ca         1 6IB       0.150600
      9 C26        100.5900    65.9780    87.1500 c3         1 6IB      -0.023600
     10 C28        102.4700    65.2060    85.6460 ca         1 6IB      -0.059000
     11 C7          98.3380    66.7660    81.3020 ca         1 6IB      -0.087300
     12 C8         100.0730    68.1030    82.3550 ca         1 6IB      -0.087300
     13 C11         97.7480    68.7930    82.5090 ca         1 6IB      -0.094300
     14 C12         99.6820    67.0020    81.5930 ca         1 6IB       0.114100
     15 C14         99.0950    68.9850    82.8010 ca         1 6IB      -0.097000
     16 C16         98.1650    64.2590    81.3780 ca         1 6IB      -0.099800
     17 C18         96.0080    69.0140    84.3050 c3         1 6IB       0.161800
     18 C19         99.1060    63.3290    80.9660 ca         1 6IB      -0.063000
     19 C23         97.4680    64.0150    82.5710 ca         1 6IB       0.150600
     20 C27         98.7030    61.9680    82.8730 ca         1 6IB      -0.059000
     21 C29         97.7480    62.8760    83.3180 ca         1 6IB      -0.196500
     22 C30        103.2370    65.3170    84.4920 ca         1 6IB      -0.196500
     23 C31         99.8620    60.2300    80.1290 c3         1 6IB       0.157300
     24 C32         99.1410    65.5900    86.8670 c3         1 6IB       0.157300
     25 C35         95.8320    64.7590    84.1230 c3         1 6IB       0.148900
     26 C37         98.3050    58.4490    79.6780 c3         1 6IB       0.143100
     27 N4          96.8740    68.6120    85.3940 n7         1 6IB      -0.867400
     28 N5          98.8220    59.3770    80.6620 n7         1 6IB      -0.856400
     29 N6          98.3680    65.5520    88.0920 n7         1 6IB      -0.856400
     30 O1         100.6280    66.1150    81.1680 os         1 6IB      -0.350100
     31 O2          96.5440    64.9330    82.9200 os         1 6IB      -0.344600
     32 O3         103.6740    66.4870    82.4250 os         1 6IB      -0.344600
     33 H1         102.1790    68.2610    81.9270 hc         1 6IB       0.054200
     34 H2         101.6230    69.2500    83.2500 hc         1 6IB       0.054200
     35 H3          96.3460    67.4960    81.5430 ha         1 6IB       0.112000
     36 H4          97.1200    70.6440    83.3840 hc         1 6IB       0.050200
     37 H5          95.9170    69.8970    82.3510 hc         1 6IB       0.050200
     38 H6         100.3490    67.7610    85.1230 ha         1 6IB       0.107000
     39 H7         101.0300    65.2470    87.8320 hc         1 6IB       0.045450
     40 H8         100.5960    66.9390    87.6770 hc         1 6IB       0.045450
     41 H9         102.7030    64.4220    86.3570 ha         1 6IB       0.108500
     42 H10         98.4290    65.4220    79.6190 hc         1 6IB       0.054200
     43 H11         96.8480    65.5950    80.3360 hc         1 6IB       0.054200
     44 H12         99.3930    69.8360    83.4040 ha         1 6IB       0.112000
     45 H13         95.2490    69.6940    84.7040 h1         1 6IB       0.050700
     46 H14         95.4740    68.1270    83.9530 h1         1 6IB       0.050700
     47 H15         99.6420    63.5200    80.0410 ha         1 6IB       0.107000
     48 H16        100.8150    60.6070    82.0170 hc         1 6IB       0.045450
     49 H17        101.2570    61.7240    80.7440 hc         1 6IB       0.045450
     50 H18         98.9080    61.0890    83.4730 ha         1 6IB       0.108500
     51 H19         97.2300    62.6730    84.2460 ha         1 6IB       0.114000
     52 H20        104.0470    64.6160    84.3390 ha         1 6IB       0.114000
     53 H21         99.4420    60.8090    79.3000 h1         1 6IB       0.031200
     54 H22        100.7030    59.6570    79.7050 h1         1 6IB       0.031200
     55 H23         98.7150    66.2840    86.1230 h1         1 6IB       0.031200
     56 H24         99.1130    64.5990    86.4020 h1         1 6IB       0.031200
     57 H25        101.9180    65.6390    79.6790 h1         1 6IB       0.030367
     58 H26        100.4320    66.4240    79.1130 h1         1 6IB       0.030367
     59 H27        101.6990    67.3830    79.9000 h1         1 6IB       0.030367
     60 H28         98.1660    69.3130    86.8690 h1         1 6IB       0.027033
     61 H29         98.1560    70.3490    85.4410 h1         1 6IB       0.027033
     62 H30         96.7810    70.3500    86.5470 h1         1 6IB       0.027033
     63 H31         95.1560    65.6070    84.2080 h1         1 6IB       0.038200
     64 H32         95.2400    63.8390    84.1240 h1         1 6IB       0.038200
     65 H33         96.4920    64.7510    84.9940 h1         1 6IB       0.038200
     66 H34        105.1670    65.9250    81.2000 h1         1 6IB       0.038200
     67 H35        105.5200    65.6500    82.9140 h1         1 6IB       0.038200
     68 H36        104.4040    64.5710    82.0490 h1         1 6IB       0.038200
     69 H37         97.5730    57.7860    80.1410 h1         1 6IB       0.028700
     70 H38         97.7960    58.9970    78.8830 h1         1 6IB       0.028700
     71 H39         99.0720    57.8210    79.2020 h1         1 6IB       0.028700
     72 H40         96.4150    65.3320    88.7990 h1         1 6IB       0.028700
     73 H41         96.4880    65.9990    87.1610 h1         1 6IB       0.028700
     74 H42         96.8320    64.2890    87.4450 h1         1 6IB       0.028700
     75 H43         97.5740    67.9690    85.0460 hn         1 6IB       0.418000
     76 H45         99.1950    58.8540    81.4450 hn         1 6IB       0.403000
     77 H47         98.4570    66.4480    88.5570 hn         1 6IB       0.403000
     78 C9          97.9100    65.5120    80.5760 c3         1 6IB       0.036200
     79 C25        100.4110    61.1880    81.1830 c3         1 6IB      -0.023600
     80 C33        101.1890    66.4160    79.9030 c3         1 6IB       0.153900
     81 C34         97.5300    69.7090    86.0770 c3         1 6IB       0.146100
     82 C36        104.7410    65.6070    82.1480 c3         1 6IB       0.148900
     83 C38         96.9630    65.2920    87.8580 c3         1 6IB       0.143100
@<TRIPOS>BOND
     1     1     4 1   
     2     1    12 1   
     3     1    33 1   
     4     1    34 1   
     5     2    11 ar  
     6     2    13 ar  
     7     2    35 1   
     8     3    13 1   
     9     3    17 1   
    10     3    36 1   
    11     3    37 1   
    12     4     5 ar  
    13     4     8 ar  
    14     5     7 ar  
    15     5    38 1   
    16     6    18 ar  
    17     6    20 ar  
    18     6    79 1   
    19     7     9 1   
    20     7    10 ar  
    21     8    22 ar  
    22     8    32 1   
    23     9    24 1   
    24     9    39 1   
    25     9    40 1   
    26    10    22 ar  
    27    10    41 1   
    28    11    14 ar  
    29    11    78 1   
    30    12    14 ar  
    31    12    15 ar  
    32    13    15 ar  
    33    14    30 1   
    34    15    44 1   
    35    16    18 ar  
    36    16    19 ar  
    37    16    78 1   
    38    17    27 1   
    39    17    45 1   
    40    17    46 1   
    41    18    47 1   
    42    19    21 ar  
    43    19    31 1   
    44    20    21 ar  
    45    20    50 1   
    46    21    51 1   
    47    22    52 1   
    48    23    28 1   
    49    23    53 1   
    50    23    54 1   
    51    23    79 1   
    52    24    29 1   
    53    24    55 1   
    54    24    56 1   
    55    25    31 1   
    56    25    63 1   
    57    25    64 1   
    58    25    65 1   
    59    26    28 1   
    60    26    69 1   
    61    26    70 1   
    62    26    71 1   
    63    27    75 1   
    64    27    81 1   
    65    28    76 1   
    66    29    77 1   
    67    29    83 1   
    68    30    80 1   
    69    32    82 1   
    70    42    78 1   
    71    43    78 1   
    72    48    79 1   
    73    49    79 1   
    74    57    80 1   
    75    58    80 1   
    76    59    80 1   
    77    60    81 1   
    78    61    81 1   
    79    62    81 1   
    80    66    82 1   
    81    67    82 1   
    82    68    82 1   
    83    72    83 1   
    84    73    83 1   
    85    74    83 1   
@<TRIPOS>SUBSTRUCTURE
     1 6IB         1 TEMP              0 ****  ****    0 ROOT
