@<TRIPOS>MOLECULE
6IC
   75    82     1     0     0
SMALL
abcg2


@<TRIPOS>ATOM
      1 C22         -4.5340     1.9210   -22.1910 ca         1 6IC      -0.139000
      2 C21         -4.9550     2.3890   -23.4010 ca         1 6IC      -0.076000
      3 C23         -3.1920     2.0830   -21.8460 ca         1 6IC       0.181000
      4 C20         -2.6890     3.1600   -23.9450 ca         1 6IC       0.004000
      5 C24         -2.2620     2.6850   -22.6620 ca         1 6IC       0.012000
      6 C19         -4.0580     3.0150   -24.2990 ca         1 6IC      -0.016000
      7 C17         -3.6890     4.0930   -26.4270 ca         1 6IC       0.146100
      8 C14          5.7080     2.9870   -20.7990 c5         1 6IC      -0.069900
      9 C13          5.8850     3.0340   -23.3190 c6         1 6IC       0.183300
     10 C18         -4.5370     3.4880   -25.5390 ca         1 6IC      -0.200000
     11 C01          2.2830     3.9260   -24.0200 ca         1 6IC      -0.264000
     12 C02          1.5580     5.1320   -23.9120 ca         1 6IC       0.080000
     13 C03          3.3980     6.2580   -23.3460 ca         1 6IC       0.421300
     14 C04          3.6570     3.9980   -23.5810 ca         1 6IC       0.467900
     15 C05          1.6460     2.8260   -24.6220 ca         1 6IC       0.386900
     16 C06         -0.3730     3.8910   -24.6640 cp         1 6IC       0.371500
     17 C07          0.1870     5.0530   -24.2230 ca         1 6IC       0.143000
     18 C08         -1.8320     3.7740   -24.9000 cp         1 6IC      -0.089500
     19 C09          5.3080     7.5140   -22.6890 c3         1 6IC       0.198600
     20 C10          3.9150     1.5950   -23.0560 c6         1 6IC       0.183300
     21 C11          4.6090     1.0730   -21.7920 c5         1 6IC       0.132000
     22 C12          6.4180     2.4100   -22.0310 c5         1 6IC       0.132000
     23 C15          4.4730     2.0740   -20.6380 c5         1 6IC      -0.069900
     24 C16         -2.3240     4.2280   -26.0940 ca         1 6IC      -0.092000
     25 C25          5.5870     8.9500   -22.2640 c5         1 6IC       0.182200
     26 C26          4.7170     9.3670   -21.0570 c5         1 6IC      -0.117400
     27 C27          4.2510    10.7700   -21.3830 c5         1 6IC       0.157300
     28 C28          4.1600    10.7420   -22.8990 c5         1 6IC       0.145800
     29 C29          6.4570    10.5680   -23.8130 c5         1 6IC       0.168800
     30 C30          7.5870     9.6380   -23.3980 c5         1 6IC      -0.088400
     31 C31          7.0990     9.1150   -22.0520 c5         1 6IC      -0.090400
     32 C32         -0.9440     2.8070   -22.1370 cg         1 6IC      -0.113000
     33 C33          0.1290     2.8680   -21.5970 c1         1 6IC      -0.222000
     34 F01         -0.5650     6.1420   -24.0410 f          1 6IC      -0.141000
     35 F02          5.2210    11.7010   -20.9820 f          1 6IC      -0.277000
     36 F23         -2.7960     1.6350   -20.6500 f          1 6IC      -0.170000
     37 N01          2.0990     6.3010   -23.5430 nb         1 6IC      -0.218000
     38 N02          4.1880     5.1920   -23.3540 nb         1 6IC      -0.369000
     39 N03          0.3770     2.8040   -24.9340 nb         1 6IC      -0.655000
     40 N04          4.4290     2.9190   -23.3970 nh         1 6IC      -0.777300
     41 N05          6.0550     0.9980   -21.9470 n7         1 6IC      -0.834400
     42 N06          5.2480     9.8930   -23.3490 n3         1 6IC      -0.718600
     43 O02         -4.0640     4.5710   -27.6260 oh         1 6IC      -0.527100
     44 H1          -5.2150     1.4390   -21.5020 ha         1 6IC       0.135000
     45 H2          -5.9930     2.2830   -23.6890 ha         1 6IC       0.119000
     46 H3           6.3580     2.9260   -19.9260 hc         1 6IC       0.053450
     47 H4           5.4450     4.0360   -20.9350 hc         1 6IC       0.053450
     48 H5           6.3100     2.5050   -24.1790 h1         1 6IC       0.066200
     49 H6           6.1670     4.0800   -23.3950 h1         1 6IC       0.066200
     50 H7          -5.5880     3.3610   -25.7750 ha         1 6IC       0.116000
     51 H8           2.2100     1.9390   -24.8850 h4         1 6IC       0.022100
     52 H9           5.5080     6.8280   -21.8610 h1         1 6IC       0.050200
     53 H10          5.9540     7.2300   -23.5240 h1         1 6IC       0.050200
     54 H11          2.8470     1.6510   -22.8590 h1         1 6IC       0.066200
     55 H12          4.0730     0.8960   -23.8840 h1         1 6IC       0.066200
     56 H13          4.1830     0.0950   -21.5590 h1         1 6IC       0.082200
     57 H14          7.5020     2.5410   -22.0010 h1         1 6IC       0.082200
     58 H15          3.5310     2.6240   -20.6780 hc         1 6IC       0.053450
     59 H16          4.4950     1.5480   -19.6830 hc         1 6IC       0.053450
     60 H17         -1.6540     4.6870   -26.8110 ha         1 6IC       0.138000
     61 H18          3.8360     8.7300   -20.9640 hc         1 6IC       0.068700
     62 H19          5.2550     9.3120   -20.1100 hc         1 6IC       0.068700
     63 H20          3.3170    11.0510   -20.8930 h1         1 6IC       0.069700
     64 H21          4.2130    11.7360   -23.3450 h1         1 6IC       0.070200
     65 H22          3.1900    10.3170   -23.1750 h1         1 6IC       0.070200
     66 H23          6.4300    10.7310   -24.8930 h1         1 6IC       0.045200
     67 H24          6.5940    11.5510   -23.3440 h1         1 6IC       0.045200
     68 H25          7.7010     8.8220   -24.1150 hc         1 6IC       0.051700
     69 H26          8.5460    10.1530   -23.3340 hc         1 6IC       0.051700
     70 H27          7.5860     8.1890   -21.7400 hc         1 6IC       0.055700
     71 H28          7.2870     9.8580   -21.2730 hc         1 6IC       0.055700
     72 H29          1.0890     2.9360   -21.1370 ha         1 6IC       0.254000
     73 H30          6.3190     0.4910   -22.7860 hn         1 6IC       0.412000
     74 H33         -5.0050     4.4200   -27.7740 ho         1 6IC       0.467000
     75 O01          3.9410     7.4330   -23.0790 os         1 6IC      -0.422300
@<TRIPOS>BOND
     1     1     2 ar  
     2     1     3 ar  
     3     1    44 1   
     4     2     6 ar  
     5     2    45 1   
     6     3     5 ar  
     7     3    36 1   
     8     4     5 ar  
     9     4     6 ar  
    10     4    18 ar  
    11     5    32 1   
    12     6    10 ar  
    13     7    10 ar  
    14     7    24 ar  
    15     7    43 1   
    16     8    22 1   
    17     8    23 1   
    18     8    46 1   
    19     8    47 1   
    20     9    22 1   
    21     9    40 1   
    22     9    48 1   
    23     9    49 1   
    24    10    50 1   
    25    11    12 ar  
    26    11    14 ar  
    27    11    15 ar  
    28    12    17 ar  
    29    12    37 ar  
    30    13    37 ar  
    31    13    38 ar  
    32    13    75 1   
    33    14    38 ar  
    34    14    40 1   
    35    15    39 ar  
    36    15    51 1   
    37    16    17 ar  
    38    16    18 1   
    39    16    39 ar  
    40    17    34 1   
    41    18    24 ar  
    42    19    25 1   
    43    19    52 1   
    44    19    53 1   
    45    19    75 1   
    46    20    21 1   
    47    20    40 1   
    48    20    54 1   
    49    20    55 1   
    50    21    23 1   
    51    21    41 1   
    52    21    56 1   
    53    22    41 1   
    54    22    57 1   
    55    23    58 1   
    56    23    59 1   
    57    24    60 1   
    58    25    26 1   
    59    25    31 1   
    60    25    42 1   
    61    26    27 1   
    62    26    61 1   
    63    26    62 1   
    64    27    28 1   
    65    27    35 1   
    66    27    63 1   
    67    28    42 1   
    68    28    64 1   
    69    28    65 1   
    70    29    30 1   
    71    29    42 1   
    72    29    66 1   
    73    29    67 1   
    74    30    31 1   
    75    30    68 1   
    76    30    69 1   
    77    31    70 1   
    78    31    71 1   
    79    32    33 3   
    80    33    72 1   
    81    41    73 1   
    82    43    74 1   
@<TRIPOS>SUBSTRUCTURE
     1 6IC         1 TEMP              0 ****  ****    0 ROOT
