@<TRIPOS>MOLECULE
6IC
   75    82     1     0     0
SMALL
No Charge or Current Charge


@<TRIPOS>ATOM
      1 C22         -5.3970     3.2040   -22.3360 ca         1 6IC      -0.139000
      2 C21         -5.5330     3.1480   -23.7240 ca         1 6IC      -0.076000
      3 C23         -4.1220     3.2590   -21.7670 ca         1 6IC       0.181000
      4 C20         -3.0810     3.2430   -24.0060 ca         1 6IC       0.004000
      5 C24         -2.9570     3.2720   -22.5730 ca         1 6IC       0.012000
      6 C19         -4.3970     3.1610   -24.5520 ca         1 6IC      -0.016000
      7 C17         -3.5290     3.0920   -26.8210 ca         1 6IC       0.146100
      8 C14          6.9020     3.3910   -21.8630 c5         1 6IC      -0.069900
      9 C13          5.7640     2.7980   -24.1600 c6         1 6IC       0.183300
     10 C18         -4.6100     3.0880   -25.9410 ca         1 6IC      -0.200000
     11 C01          2.1370     3.6750   -23.9290 ca         1 6IC      -0.264000
     12 C02          1.3440     4.8370   -23.8420 ca         1 6IC       0.080000
     13 C03          3.2090     6.0230   -23.1620 ca         1 6IC       0.421300
     14 C04          3.4960     3.7830   -23.5980 ca         1 6IC       0.467900
     15 C05          1.5610     2.4670   -24.3610 ca         1 6IC       0.386900
     16 C06         -0.5370     3.4500   -24.5470 cp         1 6IC       0.371500
     17 C07         -0.0210     4.7180   -24.1670 ca         1 6IC       0.143000
     18 C08         -1.9710     3.2770   -24.9290 cp         1 6IC      -0.089500
     19 C09          5.1110     7.3590   -22.3570 c3         1 6IC       0.198600
     20 C10          4.2020     1.6040   -22.5770 c6         1 6IC       0.183300
     21 C11          5.4650     1.4060   -21.6640 c5         1 6IC       0.132000
     22 C12          6.8970     2.4700   -23.1180 c5         1 6IC       0.132000
     23 C15          5.8900     2.6940   -20.8920 c5         1 6IC      -0.069900
     24 C16         -2.2310     3.1890   -26.3190 ca         1 6IC      -0.092000
     25 C25          5.4160     8.8410   -21.9570 c5         1 6IC       0.182200
     26 C26          4.5220     9.3740   -20.7730 c5         1 6IC      -0.117400
     27 C27          4.2430    10.8570   -21.1260 c5         1 6IC       0.157300
     28 C28          4.1670    10.7810   -22.6820 c5         1 6IC       0.145800
     29 C29          6.5420    10.5620   -23.2550 c5         1 6IC       0.168800
     30 C30          7.5640     9.4780   -22.8590 c5         1 6IC      -0.088400
     31 C31          6.9160     9.0320   -21.5270 c5         1 6IC      -0.090400
     32 C32         -1.6960     3.2750   -21.8700 cg         1 6IC      -0.113000
     33 C33         -0.6510     3.2700   -21.2480 c1         1 6IC      -0.222000
     34 F01         -0.8340     5.8020   -24.1050 f          1 6IC      -0.141000
     35 F02          5.2580    11.7020   -20.6640 f          1 6IC      -0.277000
     36 F23         -4.0320     3.2910   -20.4150 f          1 6IC      -0.170000
     37 N01          1.8940     6.0060   -23.4560 nb         1 6IC      -0.218000
     38 N02          4.0270     4.9540   -23.2190 nb         1 6IC      -0.369000
     39 N03          0.2530     2.3580   -24.6780 nb         1 6IC      -0.655000
     40 N04          4.3710     2.6810   -23.6060 nh         1 6IC      -0.777300
     41 N05          6.6620     1.1370   -22.5040 n7         1 6IC      -0.834400
     42 N06          5.2520     9.8280   -23.0820 n3         1 6IC      -0.718600
     43 O02         -3.7360     3.0170   -28.1670 oh         1 6IC      -0.527100
     44 H1          -6.2760     3.1930   -21.6980 ha         1 6IC       0.135000
     45 H2          -6.5290     3.0910   -24.1590 ha         1 6IC       0.119000
     46 H3           7.9010     3.4320   -21.4150 hc         1 6IC       0.053450
     47 H4           6.6180     4.4220   -22.1010 hc         1 6IC       0.053450
     48 H5           5.8670     2.1170   -25.0170 h1         1 6IC       0.066200
     49 H6           5.9410     3.8070   -24.5610 h1         1 6IC       0.066200
     50 H7          -5.6230     3.0220   -26.3310 ha         1 6IC       0.116000
     51 H8           2.1500     1.5580   -24.4740 h4         1 6IC       0.022100
     52 H9           5.3170     6.7100   -21.4950 h1         1 6IC       0.050200
     53 H10          5.7820     7.0650   -23.1740 h1         1 6IC       0.050200
     54 H11          3.3410     1.8310   -21.9310 h1         1 6IC       0.066200
     55 H12          3.9680     0.6520   -23.0760 h1         1 6IC       0.066200
     56 H13          5.2560     0.5760   -20.9730 h1         1 6IC       0.082200
     57 H14          7.8610     2.5110   -23.6450 h1         1 6IC       0.082200
     58 H15          5.0320     3.3330   -20.6540 hc         1 6IC       0.053450
     59 H16          6.3740     2.4420   -19.9420 hc         1 6IC       0.053450
     60 H17         -1.4000     3.2100   -27.0210 ha         1 6IC       0.138000
     61 H18          3.5720     8.8300   -20.7270 hc         1 6IC       0.068700
     62 H19          4.9830     9.2540   -19.7870 hc         1 6IC       0.068700
     63 H20          3.2990    11.2130   -20.6910 h1         1 6IC       0.069700
     64 H21          4.2660    11.7700   -23.1520 h1         1 6IC       0.070200
     65 H22          3.1870    10.3820   -22.9800 h1         1 6IC       0.070200
     66 H23          6.6830    10.9040   -24.2890 h1         1 6IC       0.045200
     67 H24          6.6390    11.4390   -22.6020 h1         1 6IC       0.045200
     68 H25          7.6150     8.6680   -23.5960 hc         1 6IC       0.051700
     69 H26          8.5740     9.8810   -22.7270 hc         1 6IC       0.051700
     70 H27          7.3640     8.1120   -21.1350 hc         1 6IC       0.055700
     71 H28          7.0540     9.8000   -20.7550 hc         1 6IC       0.055700
     72 H29          0.2650     3.2640   -20.6920 ha         1 6IC       0.254000
     73 H30          6.4300     0.4520   -23.2330 hn         1 6IC       0.412000
     74 H33         -4.7020     2.9580   -28.3290 ho         1 6IC       0.467000
     75 O01          3.7280     7.2340   -22.7660 os         1 6IC      -0.422300
@<TRIPOS>BOND
     1     1     2 ar  
     2     1     3 ar  
     3     1    44 1   
     4     2     6 ar  
     5     2    45 1   
     6     3     5 ar  
     7     3    36 1   
     8     4     5 ar  
     9     4     6 ar  
    10     4    18 ar  
    11     5    32 1   
    12     6    10 ar  
    13     7    10 ar  
    14     7    24 ar  
    15     7    43 1   
    16     8    22 1   
    17     8    23 1   
    18     8    46 1   
    19     8    47 1   
    20     9    22 1   
    21     9    40 1   
    22     9    48 1   
    23     9    49 1   
    24    10    50 1   
    25    11    12 ar  
    26    11    14 ar  
    27    11    15 ar  
    28    12    17 ar  
    29    12    37 ar  
    30    13    37 ar  
    31    13    38 ar  
    32    13    75 1   
    33    14    38 ar  
    34    14    40 1   
    35    15    39 ar  
    36    15    51 1   
    37    16    17 ar  
    38    16    18 1   
    39    16    39 ar  
    40    17    34 1   
    41    18    24 ar  
    42    19    25 1   
    43    19    52 1   
    44    19    53 1   
    45    19    75 1   
    46    20    21 1   
    47    20    40 1   
    48    20    54 1   
    49    20    55 1   
    50    21    23 1   
    51    21    41 1   
    52    21    56 1   
    53    22    41 1   
    54    22    57 1   
    55    23    58 1   
    56    23    59 1   
    57    24    60 1   
    58    25    26 1   
    59    25    31 1   
    60    25    42 1   
    61    26    27 1   
    62    26    61 1   
    63    26    62 1   
    64    27    28 1   
    65    27    35 1   
    66    27    63 1   
    67    28    42 1   
    68    28    64 1   
    69    28    65 1   
    70    29    30 1   
    71    29    42 1   
    72    29    66 1   
    73    29    67 1   
    74    30    31 1   
    75    30    68 1   
    76    30    69 1   
    77    31    70 1   
    78    31    71 1   
    79    32    33 3   
    80    33    72 1   
    81    41    73 1   
    82    43    74 1   
@<TRIPOS>SUBSTRUCTURE
     1 6IC         1 TEMP              0 ****  ****    0 ROOT
