@<TRIPOS>MOLECULE
6IF
   71    73     1     0     0
SMALL
abcg2


@<TRIPOS>ATOM
      1 N           84.3670   -58.4230    -6.5240 n7         1 6IF      -0.830400
      2 CA          83.3450   -57.8250    -5.6550 c5         1 6IF       0.079500
      3 C           82.0780   -57.4840    -6.4510 c          1 6IF       0.594100
      4 O           82.0760   -57.4620    -7.6800 o          1 6IF      -0.610100
      5 CB          84.0270   -56.5790    -5.0320 c5         1 6IF       0.154300
      6 CG          85.0520   -56.1540    -6.0870 c5         1 6IF      -0.124700
      7 CD1         85.5470   -57.5280    -6.5370 c5         1 6IF       0.146800
      8 CD2         86.1360   -55.2340    -5.5410 c3         1 6IF      -0.060400
      9 CAA         76.2180   -58.0300    -5.7620 c6         1 6IF       0.293300
     10 CAB         76.3610   -59.5420    -5.9970 c6         1 6IF       0.119300
     11 CAC         77.6520   -60.0650    -5.3880 c6         1 6IF       0.134300
     12 CAD         78.8510   -59.2690    -5.8970 c6         1 6IF       0.154300
     13 CAE         78.6030   -57.7860    -5.6530 c6         1 6IF       0.153300
     14 CAG         79.6940   -56.8850    -6.2370 c3         1 6IF       0.114700
     15 CAI         79.3970   -55.3940    -6.0550 c3         1 6IF       0.150300
     16 CAK         80.4090   -54.4870    -6.7200 c3         1 6IF      -0.102100
     17 CAW         83.6320   -54.4440    -4.0370 c3         1 6IF       0.165600
     18 CAX         84.2700   -53.5030    -5.0560 c3         1 6IF      -0.106400
     19 CAY         85.7520   -53.7470    -5.4110 c3         1 6IF      -0.054700
     20 CBA         86.7040   -53.0760    -4.4090 c3         1 6IF      -0.073400
     21 CBB         86.7440   -51.5420    -4.4130 c3         1 6IF      -0.062700
     22 CBC         87.3030   -50.9850    -5.7240 c3         1 6IF      -0.088100
     23 CBD         87.5600   -51.0350    -3.2230 c3         1 6IF      -0.088100
     24 NAH         80.9830   -57.2650    -5.6990 ns         1 6IF      -0.483900
     25 OAF         77.3700   -57.3620    -6.2390 os         1 6IF      -0.442000
     26 OAL         79.0640   -59.4950    -7.2860 oh         1 6IF      -0.711000
     27 OAM         77.8670   -61.4300    -5.7360 oh         1 6IF      -0.671000
     28 OAN         75.2960   -60.3050    -5.4460 oh         1 6IF      -0.714000
     29 OAV         83.0760   -55.6180    -4.6390 os         1 6IF      -0.468000
     30 SBE         75.8200   -57.6470    -4.0090 ss         1 6IF      -0.462000
     31 CLAJ        79.3180   -54.9840    -4.2590 cl         1 6IF      -0.331000
     32 H1          83.9730   -58.4550    -7.4590 hn         1 6IF       0.436000
     33 H3          83.0480   -58.5120    -4.8580 h1         1 6IF       0.085700
     34 H4          84.5840   -56.9100    -4.1440 h1         1 6IF       0.043700
     35 H5          84.5220   -55.6800    -6.9200 hc         1 6IF       0.072700
     36 H6          86.3020   -57.8960    -5.8340 h1         1 6IF       0.055200
     37 H7          85.9980   -57.5140    -7.5290 h1         1 6IF       0.055200
     38 H8          86.4360   -55.6170    -4.5590 hc         1 6IF       0.041700
     39 H9          87.0280   -55.2990    -6.1710 hc         1 6IF       0.041700
     40 H10         75.3960   -57.6370    -6.3600 h2         1 6IF       0.089700
     41 H11         76.4070   -59.6860    -7.0800 h1         1 6IF       0.066700
     42 H12         77.6030   -59.9600    -4.2980 h1         1 6IF       0.070700
     43 H13         79.7360   -59.5730    -5.3280 h1         1 6IF       0.063700
     44 H15         79.7380   -57.0530    -7.3120 h1         1 6IF       0.117700
     45 H16         78.3910   -55.1930    -6.4090 h1         1 6IF       0.087700
     46 H17         80.1340   -53.4420    -6.5840 hc         1 6IF       0.056700
     47 H18         81.4060   -54.6500    -6.3130 hc         1 6IF       0.056700
     48 H19         80.4270   -54.7050    -7.7900 hc         1 6IF       0.056700
     49 H20         82.7830   -53.9520    -3.5620 h1         1 6IF       0.050200
     50 H21         84.3380   -54.7330    -3.2500 h1         1 6IF       0.050200
     51 H22         84.1660   -52.4820    -4.6820 hc         1 6IF       0.051700
     52 H23         83.6580   -53.5520    -5.9600 hc         1 6IF       0.051700
     53 H24         85.9090   -53.2890    -6.3910 hc         1 6IF       0.050700
     54 H25         86.4410   -53.4230    -3.4030 hc         1 6IF       0.038700
     55 H26         87.7220   -53.4390    -4.5960 hc         1 6IF       0.038700
     56 H27         85.7220   -51.1650    -4.2950 hc         1 6IF       0.043700
     57 H28         87.3290   -49.8930    -5.7020 hc         1 6IF       0.033200
     58 H29         88.3260   -51.3420    -5.8840 hc         1 6IF       0.033200
     59 H30         86.7050   -51.2870    -6.5850 hc         1 6IF       0.033200
     60 H31         87.1410   -51.3890    -2.2780 hc         1 6IF       0.033200
     61 H32         88.5940   -51.3890    -3.2850 hc         1 6IF       0.033200
     62 H33         87.5830   -49.9430    -3.1970 hc         1 6IF       0.033200
     63 H34         75.2340   -55.4920    -3.2170 h1         1 6IF       0.065367
     64 H35         76.4390   -55.3590    -4.5140 h1         1 6IF       0.065367
     65 H36         74.7270   -55.6860    -4.9110 h1         1 6IF       0.065367
     66 H37         81.1130   -57.1900    -4.7010 hn         1 6IF       0.327500
     67 H38         78.9980   -60.4500    -7.4280 ho         1 6IF       0.522000
     68 H39         77.0230   -61.8930    -5.6360 ho         1 6IF       0.468000
     69 H40         74.5090   -60.1900    -5.9930 ho         1 6IF       0.514000
     70 H14         78.5550   -57.6370    -4.5700 h1         1 6IF       0.073700
     71 CBF         75.5300   -55.8650    -4.1960 c3         1 6IF       0.049900
@<TRIPOS>BOND
     1     1     2 1   
     2     1     7 1   
     3     1    32 1   
     4     2     3 1   
     5     2     5 1   
     6     2    33 1   
     7     3     4 2   
     8     3    24 1   
     9     5     6 1   
    10     5    29 1   
    11     5    34 1   
    12     6     7 1   
    13     6     8 1   
    14     6    35 1   
    15     7    36 1   
    16     7    37 1   
    17     8    19 1   
    18     8    38 1   
    19     8    39 1   
    20     9    10 1   
    21     9    25 1   
    22     9    30 1   
    23     9    40 1   
    24    10    11 1   
    25    10    28 1   
    26    10    41 1   
    27    11    12 1   
    28    11    27 1   
    29    11    42 1   
    30    12    13 1   
    31    12    26 1   
    32    12    43 1   
    33    13    14 1   
    34    13    25 1   
    35    13    70 1   
    36    14    15 1   
    37    14    24 1   
    38    14    44 1   
    39    15    16 1   
    40    15    31 1   
    41    15    45 1   
    42    16    46 1   
    43    16    47 1   
    44    16    48 1   
    45    17    18 1   
    46    17    29 1   
    47    17    49 1   
    48    17    50 1   
    49    18    19 1   
    50    18    51 1   
    51    18    52 1   
    52    19    20 1   
    53    19    53 1   
    54    20    21 1   
    55    20    54 1   
    56    20    55 1   
    57    21    22 1   
    58    21    23 1   
    59    21    56 1   
    60    22    57 1   
    61    22    58 1   
    62    22    59 1   
    63    23    60 1   
    64    23    61 1   
    65    23    62 1   
    66    24    66 1   
    67    26    67 1   
    68    27    68 1   
    69    28    69 1   
    70    30    71 1   
    71    63    71 1   
    72    64    71 1   
    73    65    71 1   
@<TRIPOS>SUBSTRUCTURE
     1 6IF         1 TEMP              0 ****  ****    0 ROOT
