@<TRIPOS>MOLECULE
6IF
   71    73     1     0     0
SMALL
No Charge or Current Charge


@<TRIPOS>ATOM
      1 N           84.3600   -58.5000    -6.3760 n7         1 6IF      -0.830400
      2 CA          83.3100   -57.7890    -5.5430 c5         1 6IF       0.079500
      3 C           82.1030   -57.2650    -6.4130 c          1 6IF       0.594100
      4 O           82.1170   -57.0370    -7.6180 o          1 6IF      -0.610100
      5 CB          84.0690   -56.5980    -4.8670 c5         1 6IF       0.154300
      6 CG          85.1520   -56.2840    -5.9340 c5         1 6IF      -0.124700
      7 CD1         85.6220   -57.7410    -6.1710 c5         1 6IF       0.146800
      8 CD2         86.2680   -55.3320    -5.4390 c3         1 6IF      -0.060400
      9 CAA         76.0940   -58.1480    -5.8150 c6         1 6IF       0.293300
     10 CAB         76.2700   -59.6660    -6.1730 c6         1 6IF       0.119300
     11 CAC         77.6200   -60.2000    -5.6020 c6         1 6IF       0.134300
     12 CAD         78.8150   -59.3120    -6.0630 c6         1 6IF       0.154300
     13 CAE         78.5160   -57.8220    -5.6820 c6         1 6IF       0.153300
     14 CAG         79.6200   -56.8240    -6.1630 c3         1 6IF       0.114700
     15 CAI         79.2990   -55.3340    -5.8370 c3         1 6IF       0.150300
     16 CAK         80.2320   -54.3260    -6.5400 c3         1 6IF      -0.102100
     17 CAW         83.7050   -54.2440    -4.1340 c3         1 6IF       0.165600
     18 CAX         84.4220   -53.4940    -5.2760 c3         1 6IF      -0.106400
     19 CAY         85.9370   -53.8100    -5.4510 c3         1 6IF      -0.054700
     20 CBA         86.8650   -53.0620    -4.4420 c3         1 6IF      -0.073400
     21 CBB         86.8240   -51.5040    -4.4400 c3         1 6IF      -0.062700
     22 CBC         87.1230   -50.8870    -5.8280 c3         1 6IF      -0.088100
     23 CBD         87.7880   -50.9360    -3.3730 c3         1 6IF      -0.088100
     24 NAH         80.9520   -57.2100    -5.6500 ns         1 6IF      -0.483900
     25 OAF         77.2500   -57.3990    -6.2580 os         1 6IF      -0.442000
     26 OAL         79.0110   -59.4920    -7.4810 oh         1 6IF      -0.711000
     27 OAM         77.8170   -61.5650    -6.0200 oh         1 6IF      -0.671000
     28 OAN         75.1760   -60.4970    -5.7080 oh         1 6IF      -0.714000
     29 OAV         83.1740   -55.4790    -4.6570 os         1 6IF      -0.468000
     30 SBE         75.7940   -57.8050    -4.0120 ss         1 6IF      -0.462000
     31 ClAJ        79.3310   -55.0330    -4.0370 cl         1 6IF      -0.331000
     32 H1          84.0820   -58.3880    -7.3620 hn         1 6IF       0.436000
     33 H3          82.9070   -58.4640    -4.7750 h1         1 6IF       0.085700
     34 H4          84.5140   -56.8990    -3.9090 h1         1 6IF       0.043700
     35 H5          84.7270   -55.8670    -6.8550 hc         1 6IF       0.072700
     36 H6          86.1600   -58.1250    -5.2910 h1         1 6IF       0.055200
     37 H7          86.2950   -57.8300    -7.0360 h1         1 6IF       0.055200
     38 H8          86.5530   -55.6320    -4.4230 hc         1 6IF       0.041700
     39 H9          87.1690   -55.4820    -6.0480 hc         1 6IF       0.041700
     40 H10         75.2070   -57.7690    -6.3450 h2         1 6IF       0.089700
     41 H11         76.3240   -59.7230    -7.2710 h1         1 6IF       0.066700
     42 H12         77.5680   -60.1530    -4.5030 h1         1 6IF       0.070700
     43 H13         79.7130   -59.6390    -5.5160 h1         1 6IF       0.063700
     44 H15         79.6370   -56.9110    -7.2580 h1         1 6IF       0.117700
     45 H16         78.2740   -55.1180    -6.1640 h1         1 6IF       0.087700
     46 H17         79.9110   -53.2990    -6.3290 hc         1 6IF       0.056700
     47 H18         81.2660   -54.4350    -6.1980 hc         1 6IF       0.056700
     48 H19         80.2100   -54.4730    -7.6270 hc         1 6IF       0.056700
     49 H20         82.8760   -53.6190    -3.7790 h1         1 6IF       0.050200
     50 H21         84.3810   -54.4160    -3.2850 h1         1 6IF       0.050200
     51 H22         84.2820   -52.4200    -5.1250 hc         1 6IF       0.051700
     52 H23         83.8990   -53.7060    -6.2170 hc         1 6IF       0.051700
     53 H24         86.2020   -53.4580    -6.4550 hc         1 6IF       0.050700
     54 H25         86.6310   -53.4130    -3.4290 hc         1 6IF       0.038700
     55 H26         87.9000   -53.3720    -4.6360 hc         1 6IF       0.038700
     56 H27         85.8190   -51.1820    -4.1440 hc         1 6IF       0.043700
     57 H28         87.1510   -49.7920    -5.7660 hc         1 6IF       0.033200
     58 H29         88.0920   -51.2320    -6.2090 hc         1 6IF       0.033200
     59 H30         86.3480   -51.1540    -6.5550 hc         1 6IF       0.033200
     60 H31         87.5440   -51.3320    -2.3800 hc         1 6IF       0.033200
     61 H32         88.8270   -51.2020    -3.6030 hc         1 6IF       0.033200
     62 H33         87.7160   -49.8430    -3.3270 hc         1 6IF       0.033200
     63 H34         75.2930   -55.6010    -3.0640 h1         1 6IF       0.065367
     64 H35         76.3710   -55.4660    -4.4820 h1         1 6IF       0.065367
     65 H36         74.6250   -55.7650    -4.7140 h1         1 6IF       0.065367
     66 H37         81.0620   -57.3510    -4.6530 hn         1 6IF       0.327500
     67 H38         78.8520   -60.4560    -7.6260 ho         1 6IF       0.522000
     68 H39         76.9340   -61.9890    -5.9080 ho         1 6IF       0.468000
     69 H40         74.3360   -60.1120    -6.0550 ho         1 6IF       0.514000
     70 H14         78.4570   -57.7450    -4.5870 h1         1 6IF       0.073700
     71 CBF         75.4910   -55.9800    -4.0750 c3         1 6IF       0.049900
@<TRIPOS>BOND
     1     1     2 1   
     2     1     7 1   
     3     1    32 1   
     4     2     3 1   
     5     2     5 1   
     6     2    33 1   
     7     3     4 2   
     8     3    24 1   
     9     5     6 1   
    10     5    29 1   
    11     5    34 1   
    12     6     7 1   
    13     6     8 1   
    14     6    35 1   
    15     7    36 1   
    16     7    37 1   
    17     8    19 1   
    18     8    38 1   
    19     8    39 1   
    20     9    10 1   
    21     9    25 1   
    22     9    30 1   
    23     9    40 1   
    24    10    11 1   
    25    10    28 1   
    26    10    41 1   
    27    11    12 1   
    28    11    27 1   
    29    11    42 1   
    30    12    13 1   
    31    12    26 1   
    32    12    43 1   
    33    13    14 1   
    34    13    25 1   
    35    13    70 1   
    36    14    15 1   
    37    14    24 1   
    38    14    44 1   
    39    15    16 1   
    40    15    31 1   
    41    15    45 1   
    42    16    46 1   
    43    16    47 1   
    44    16    48 1   
    45    17    18 1   
    46    17    29 1   
    47    17    49 1   
    48    17    50 1   
    49    18    19 1   
    50    18    51 1   
    51    18    52 1   
    52    19    20 1   
    53    19    53 1   
    54    20    21 1   
    55    20    54 1   
    56    20    55 1   
    57    21    22 1   
    58    21    23 1   
    59    21    56 1   
    60    22    57 1   
    61    22    58 1   
    62    22    59 1   
    63    23    60 1   
    64    23    61 1   
    65    23    62 1   
    66    24    66 1   
    67    26    67 1   
    68    27    68 1   
    69    28    69 1   
    70    30    71 1   
    71    63    71 1   
    72    64    71 1   
    73    65    71 1   
@<TRIPOS>SUBSTRUCTURE
     1 6IF         1 TEMP              0 ****  ****    0 ROOT
