@<TRIPOS>MOLECULE
6IG
   68    71     1     0     0
SMALL
No Charge or Current Charge


@<TRIPOS>ATOM
      1 C1          -0.0230    -2.6990     0.1100 ca         1 6IG       0.432900
      2 N1          -0.7290    -3.7350    -0.3630 nb         1 6IG      -0.331000
      3 C2          -0.0120    -4.7440    -0.8570 ca         1 6IG       0.406900
      4 N2           1.3180    -4.8410    -0.9420 nb         1 6IG      -0.291000
      5 C3           2.0330    -3.8000    -0.4690 ca         1 6IG       0.205300
      6 C4           1.3920    -2.6630     0.0960 cp         1 6IG      -0.274000
      7 N3          -0.7440    -1.6340     0.6280 nu         1 6IG      -0.936100
      8 N4          -0.7170    -5.7940    -1.3310 nv         1 6IG      -1.053900
      9 C5           3.5460    -3.9180    -0.6480 c3         1 6IG      -0.134700
     10 C6           4.0820    -3.0330    -1.7910 c3         1 6IG      -0.083100
     11 C7           3.0450    -1.5650     1.6760 ca         1 6IG      -0.150000
     12 C8           3.7210    -0.4300     2.1450 ca         1 6IG      -0.076000
     13 C9           3.4710     0.8310     1.5710 ca         1 6IG      -0.143300
     14 C10          2.5250     0.9680     0.5250 ca         1 6IG       0.325000
     15 C11          1.9050    -0.2000     0.0320 ca         1 6IG      -0.188000
     16 C12          2.1390    -1.4710     0.6000 cp         1 6IG       0.023000
     17 C13          4.2390     2.0490     2.0760 c6         1 6IG      -0.023100
     18 C14          4.3930     3.0780     0.9420 c6         1 6IG      -0.086400
     19 C15          3.0120     3.4540     0.3680 c6         1 6IG       0.216800
     20 N5           2.1950     2.2580    -0.0000 nh         1 6IG      -0.811400
     21 C16          0.9240     2.5000    -0.7420 c3         1 6IG       0.219800
     22 C17          0.1520     3.7830    -0.3670 c3         1 6IG      -0.092400
     23 C18         -1.2420     3.8270    -1.0180 c3         1 6IG       0.158600
     24 O1          -1.9020     5.0230    -0.5750 os         1 6IG      -0.455000
     25 C19         -3.2540     5.1590    -1.0430 c3         1 6IG       0.146900
     26 C20         -2.1350    -1.2680     0.3200 c3         1 6IG       0.234800
     27 C21         -2.4690     0.1100     0.9290 c3         1 6IG      -0.051100
     28 C22         -6.3520     1.6190    -0.3010 ca         1 6IG      -0.109000
     29 C23         -6.1580     1.1710     1.0170 ca         1 6IG      -0.109000
     30 C24         -4.9040     0.6780     1.4160 ca         1 6IG      -0.104500
     31 C25         -3.8350     0.6290     0.4990 ca         1 6IG      -0.081300
     32 C26         -4.0370     1.0780    -0.8210 ca         1 6IG      -0.104500
     33 C27         -5.2910     1.5720    -1.2200 ca         1 6IG      -0.109000
     34 HN3         -0.1480    -0.8950     0.9960 hn         1 6IG       0.502000
     35 HN41        -0.2240    -6.6650    -1.5070 hn         1 6IG       0.484000
     36 HN42        -1.7020    -5.8640    -1.0890 hn         1 6IG       0.484000
     37 H51          3.8250    -4.9590    -0.8580 hc         1 6IG       0.058700
     38 H52          4.0660    -3.6600     0.2800 hc         1 6IG       0.058700
     39 H61          5.1650    -3.1660    -1.9030 hc         1 6IG       0.037033
     40 H62          3.6040    -3.2970    -2.7410 hc         1 6IG       0.037033
     41 H63          3.8880    -1.9730    -1.5900 hc         1 6IG       0.037033
     42 H8           4.4330    -0.5280     2.9610 ha         1 6IG       0.107000
     43 H11          1.2250    -0.1430    -0.8110 ha         1 6IG       0.116000
     44 H131         3.7040     2.4990     2.9230 hc         1 6IG       0.047200
     45 H132         5.2320     1.7560     2.4450 hc         1 6IG       0.047200
     46 H141         4.9050     3.9780     1.3090 hc         1 6IG       0.052700
     47 H142         5.0210     2.6580     0.1440 hc         1 6IG       0.052700
     48 H151         2.4780     4.0500     1.1230 h1         1 6IG       0.039200
     49 H152         3.1630     4.0970    -0.5130 h1         1 6IG       0.039200
     50 H161         1.1290     2.5090    -1.8220 h1         1 6IG       0.037200
     51 H162         0.2270     1.6750    -0.5550 h1         1 6IG       0.037200
     52 H171         0.0330     3.8240     0.7220 hc         1 6IG       0.060200
     53 H172         0.7220     4.6670    -0.6760 hc         1 6IG       0.060200
     54 H181        -1.1410     3.8200    -2.1110 h1         1 6IG       0.021700
     55 H182        -1.8120     2.9390    -0.7150 h1         1 6IG       0.021700
     56 H191        -3.2870     5.1780    -2.1400 h1         1 6IG       0.029033
     57 H192        -3.8750     4.3240    -0.6910 h1         1 6IG       0.029033
     58 H193        -3.6950     6.0930    -0.6710 h1         1 6IG       0.029033
     59 H201        -2.2690    -1.2160    -0.7700 h1         1 6IG       0.057200
     60 H202        -2.8310    -2.0240     0.7090 h1         1 6IG       0.057200
     61 H211        -2.4090     0.0390     2.0220 hc         1 6IG       0.050700
     62 H212        -1.7010     0.8320     0.6270 hc         1 6IG       0.050700
     63 H22         -7.3230     2.0010    -0.6090 ha         1 6IG       0.113000
     64 H23         -6.9790     1.2080     1.7290 ha         1 6IG       0.113000
     65 H24         -4.7640     0.3370     2.4390 ha         1 6IG       0.111500
     66 H26         -3.2210     1.0470    -1.5400 ha         1 6IG       0.111500
     67 H27         -5.4390     1.9180    -2.2400 ha         1 6IG       0.113000
     68 H7           3.2240    -2.5270     2.1500 ha         1 6IG       0.118000
@<TRIPOS>BOND
     1     1     2 ar  
     2     1     6 ar  
     3     1     7 1   
     4     2     3 ar  
     5     3     4 ar  
     6     3     8 1   
     7     4     5 ar  
     8     5     6 ar  
     9     5     9 1   
    10     6    16 1   
    11     7    26 1   
    12     7    34 1   
    13     8    35 1   
    14     8    36 1   
    15     9    10 1   
    16     9    37 1   
    17     9    38 1   
    18    10    39 1   
    19    10    40 1   
    20    10    41 1   
    21    11    12 ar  
    22    11    16 ar  
    23    11    68 1   
    24    12    13 ar  
    25    12    42 1   
    26    13    14 ar  
    27    13    17 1   
    28    14    15 ar  
    29    14    20 1   
    30    15    16 ar  
    31    15    43 1   
    32    17    18 1   
    33    17    44 1   
    34    17    45 1   
    35    18    19 1   
    36    18    46 1   
    37    18    47 1   
    38    19    20 1   
    39    19    48 1   
    40    19    49 1   
    41    20    21 1   
    42    21    22 1   
    43    21    50 1   
    44    21    51 1   
    45    22    23 1   
    46    22    52 1   
    47    22    53 1   
    48    23    24 1   
    49    23    54 1   
    50    23    55 1   
    51    24    25 1   
    52    25    56 1   
    53    25    57 1   
    54    25    58 1   
    55    26    27 1   
    56    26    59 1   
    57    26    60 1   
    58    27    31 1   
    59    27    61 1   
    60    27    62 1   
    61    28    29 ar  
    62    28    33 ar  
    63    28    63 1   
    64    29    30 ar  
    65    29    64 1   
    66    30    31 ar  
    67    30    65 1   
    68    31    32 ar  
    69    32    33 ar  
    70    32    66 1   
    71    33    67 1   
@<TRIPOS>SUBSTRUCTURE
     1 6IG         1 TEMP              0 ****  ****    0 ROOT
