@<TRIPOS>MOLECULE
6IG
   68    71     1     0     0
SMALL
bcc


@<TRIPOS>ATOM
      1 C1          -0.3360    -2.3690    -0.1210 ca         1 6IG       0.761200
      2 N1          -1.0010    -3.3140    -0.7770 nb         1 6IG      -0.857000
      3 C2          -0.2820    -4.1460    -1.5290 ca         1 6IG       0.932900
      4 N2           1.0380    -4.1320    -1.6770 nb         1 6IG      -0.817000
      5 C3           1.7070    -3.1860    -1.0060 ca         1 6IG       0.533600
      6 C4           1.0770    -2.2590    -0.1970 cp         1 6IG      -0.404600
      7 N3          -1.0480    -1.5040     0.6240 nu         1 6IG      -0.880900
      8 N4          -0.9740    -5.0760    -2.2340 nv         1 6IG      -0.943500
      9 C5           3.1890    -3.1490    -1.2470 c3         1 6IG      -0.134700
     10 C6           3.5220    -2.2850    -2.4630 c3         1 6IG      -0.083100
     11 C7           2.5060    -1.5100     1.7140 ca         1 6IG      -0.168000
     12 C8           3.1370    -0.4860     2.4050 ca         1 6IG      -0.094000
     13 C9           3.0750     0.8380     1.9960 ca         1 6IG      -0.143300
     14 C10          2.3550     1.1640     0.8250 ca         1 6IG       0.186600
     15 C11          1.7170     0.1180     0.1360 ca         1 6IG      -0.206000
     16 C12          1.7920    -1.2060     0.5610 cp         1 6IG       0.023000
     17 C13          3.7670     1.8990     2.8100 c6         1 6IG      -0.023100
     18 C14          3.9480     3.1760     2.0120 c6         1 6IG      -0.086400
     19 C15          2.6510     3.5200     1.3030 c6         1 6IG       0.216800
     20 N5           2.2970     2.4680     0.3680 nh         1 6IG      -0.673000
     21 C16          1.3740     2.7670    -0.7130 c3         1 6IG       0.219800
     22 C17          1.4410     4.1960    -1.2320 c3         1 6IG      -0.092400
     23 C18          0.5900     4.3320    -2.4810 c3         1 6IG       0.135400
     24 O1           0.6120     5.6720    -2.9040 os         1 6IG      -0.408600
     25 C19         -0.1510     5.8860    -4.0640 c3         1 6IG       0.123700
     26 C20         -2.4780    -1.5690     0.8090 c3         1 6IG       0.234800
     27 C21         -3.0010    -0.2200     1.2960 c3         1 6IG      -0.051100
     28 C22         -7.2580    -0.4220     1.8790 ca         1 6IG      -0.127000
     29 C23         -6.3950    -0.7350     2.9210 ca         1 6IG      -0.127000
     30 C24         -5.0210    -0.6560     2.7360 ca         1 6IG      -0.122500
     31 C25         -4.4880    -0.2630     1.5100 ca         1 6IG      -0.081300
     32 C26         -5.3630     0.0470     0.4720 ca         1 6IG      -0.122500
     33 C27         -6.7370    -0.0300     0.6520 ca         1 6IG      -0.127000
     34 HN3         -0.5330    -0.8390     1.1780 hn         1 6IG       0.446800
     35 HN41        -0.4580    -5.8570    -2.6010 hn         1 6IG       0.428800
     36 HN42        -1.9200    -5.2670    -1.9520 hn         1 6IG       0.428800
     37 H51          3.5380    -4.1680    -1.4190 hc         1 6IG       0.058700
     38 H52          3.7150    -2.7670    -0.3720 hc         1 6IG       0.058700
     39 H61          4.5950    -2.2880    -2.6560 hc         1 6IG       0.037033
     40 H62          3.0190    -2.6560    -3.3560 hc         1 6IG       0.037033
     41 H63          3.2120    -1.2500    -2.3080 hc         1 6IG       0.037033
     42 H8           3.6960    -0.7200     3.3040 ha         1 6IG       0.125000
     43 H11          1.1450     0.3220    -0.7580 ha         1 6IG       0.134000
     44 H131         3.1750     2.1170     3.7060 hc         1 6IG       0.047200
     45 H132         4.7290     1.5240     3.1670 hc         1 6IG       0.047200
     46 H141         4.2380     4.0010     2.6640 hc         1 6IG       0.052700
     47 H142         4.7390     3.0560     1.2680 hc         1 6IG       0.052700
     48 H151         1.8560     3.6850     2.0450 h1         1 6IG       0.039200
     49 H152         2.7780     4.4520     0.7590 h1         1 6IG       0.039200
     50 H161         1.6070     2.1040    -1.5510 h1         1 6IG       0.037200
     51 H162         0.3370     2.5410    -0.4210 h1         1 6IG       0.037200
     52 H171         1.0770     4.9010    -0.4810 hc         1 6IG       0.060200
     53 H172         2.4750     4.4620    -1.4660 hc         1 6IG       0.060200
     54 H181         0.9710     3.6690    -3.2710 h1         1 6IG       0.021700
     55 H182        -0.4410     4.0100    -2.2710 h1         1 6IG       0.021700
     56 H191         0.2210     5.3050    -4.9160 h1         1 6IG       0.029033
     57 H192        -1.2070     5.6240    -3.9170 h1         1 6IG       0.029033
     58 H193        -0.0920     6.9440    -4.3170 h1         1 6IG       0.029033
     59 H201        -2.9530    -1.8290    -0.1380 h1         1 6IG       0.057200
     60 H202        -2.7490    -2.3520     1.5260 h1         1 6IG       0.057200
     61 H211        -2.4970     0.0530     2.2270 hc         1 6IG       0.050700
     62 H212        -2.7510     0.5470     0.5580 hc         1 6IG       0.050700
     63 H22         -8.3290    -0.4790     2.0230 ha         1 6IG       0.131000
     64 H23         -6.7910    -1.0400     3.8810 ha         1 6IG       0.131000
     65 H24         -4.3540    -0.8970     3.5560 ha         1 6IG       0.129500
     66 H26         -4.9630     0.3580    -0.4870 ha         1 6IG       0.129500
     67 H27         -7.4020     0.2190    -0.1660 ha         1 6IG       0.131000
     68 H7           2.5670    -2.5310     2.0680 ha         1 6IG       0.136000
@<TRIPOS>BOND
     1     1     2 ar  
     2     1     6 ar  
     3     1     7 1   
     4     2     3 ar  
     5     3     4 ar  
     6     3     8 1   
     7     4     5 ar  
     8     5     6 ar  
     9     5     9 1   
    10     6    16 1   
    11     7    26 1   
    12     7    34 1   
    13     8    35 1   
    14     8    36 1   
    15     9    10 1   
    16     9    37 1   
    17     9    38 1   
    18    10    39 1   
    19    10    40 1   
    20    10    41 1   
    21    11    12 ar  
    22    11    16 ar  
    23    11    68 1   
    24    12    13 ar  
    25    12    42 1   
    26    13    14 ar  
    27    13    17 1   
    28    14    15 ar  
    29    14    20 1   
    30    15    16 ar  
    31    15    43 1   
    32    17    18 1   
    33    17    44 1   
    34    17    45 1   
    35    18    19 1   
    36    18    46 1   
    37    18    47 1   
    38    19    20 1   
    39    19    48 1   
    40    19    49 1   
    41    20    21 1   
    42    21    22 1   
    43    21    50 1   
    44    21    51 1   
    45    22    23 1   
    46    22    52 1   
    47    22    53 1   
    48    23    24 1   
    49    23    54 1   
    50    23    55 1   
    51    24    25 1   
    52    25    56 1   
    53    25    57 1   
    54    25    58 1   
    55    26    27 1   
    56    26    59 1   
    57    26    60 1   
    58    27    31 1   
    59    27    61 1   
    60    27    62 1   
    61    28    29 ar  
    62    28    33 ar  
    63    28    63 1   
    64    29    30 ar  
    65    29    64 1   
    66    30    31 ar  
    67    30    65 1   
    68    31    32 ar  
    69    32    33 ar  
    70    32    66 1   
    71    33    67 1   
@<TRIPOS>SUBSTRUCTURE
     1 6IG         1 TEMP              0 ****  ****    0 ROOT
