@<TRIPOS>MOLECULE
6IK
   84    90     1     0     0
SMALL
abcg2


@<TRIPOS>ATOM
      1 C10         43.7370   -28.3780    20.7790 c3         1 6IK       0.208100
      2 C13         41.2830   -26.0440    20.8000 cx         1 6IK      -0.108700
      3 C15         41.2480   -25.9400    19.3030 cx         1 6IK      -0.129900
      4 C17         41.5200   -25.7730    23.8670 cy         1 6IK      -0.070400
      5 C20         43.5410   -27.3230    23.0290 cy         1 6IK       0.159800
      6 C21         42.9640   -30.7390    21.1620 ca         1 6IK      -0.104500
      7 C22         43.1710   -32.0360    21.5940 ca         1 6IK      -0.076500
      8 C24         45.0870   -34.7450    26.6070 c6         1 6IK      -0.063400
      9 C26         42.7380   -35.1940    27.3580 c6         1 6IK       0.217800
     10 C02         44.8730   -35.7060    25.4390 c6         1 6IK       0.133000
     11 C03         45.7030   -35.2930    24.2110 c3         1 6IK       0.073000
     12 C06         44.3990   -32.4120    22.1370 ca         1 6IK      -0.153600
     13 C07         45.4240   -31.4730    22.1990 ca         1 6IK      -0.076500
     14 C08         45.2180   -30.1800    21.7370 ca         1 6IK      -0.104500
     15 C09         43.9870   -29.7940    21.2210 ca         1 6IK      -0.056300
     16 C12         42.5860   -26.2840    21.4910 cy         1 6IK       0.200500
     17 C14         41.0330   -24.7200    20.1440 cx         1 6IK      -0.129900
     18 C16         42.7670   -26.0050    22.9980 cy         1 6IK      -0.094000
     19 C18         41.8760   -24.2760    23.9120 cy         1 6IK      -0.092400
     20 C19         43.3030   -24.6470    23.4640 cy         1 6IK      -0.070400
     21 C25         44.1910   -35.0720    27.7990 c6         1 6IK      -0.099400
     22 C27         43.3720   -35.7620    25.1070 c6         1 6IK       0.188800
     23 C29         42.2400   -37.4390    26.5060 ca         1 6IK       0.418900
     24 C31         41.4260   -38.9760    27.9650 ca         1 6IK       0.193900
     25 C33         41.7790   -39.6920    25.8600 ca         1 6IK       0.398900
     26 C35         41.9900   -40.5990    23.5720 c3         1 6IK       0.277100
     27 C36         42.0590   -41.9590    22.9340 ca         1 6IK      -0.114300
     28 C37         41.0920   -42.3710    22.0230 ca         1 6IK      -0.091500
     29 C38         41.1590   -43.6330    21.4440 ca         1 6IK      -0.113500
     30 C39         42.1920   -44.4970    21.7750 ca         1 6IK      -0.100000
     31 C40         43.1610   -44.0930    22.6870 ca         1 6IK      -0.113500
     32 C41         43.0940   -42.8330    23.2620 ca         1 6IK      -0.091500
     33 C42         42.2160   -38.4190    25.5030 ca         1 6IK      -0.373000
     34 N04         45.3790   -34.0020    23.6540 ns         1 6IK      -0.503900
     35 N11         42.9250   -27.6880    21.7520 nq         1 6IK      -0.705600
     36 N28         42.6110   -36.1550    26.2730 nh         1 6IK      -0.760300
     37 N30         41.8340   -37.7390    27.7530 nb         1 6IK      -0.297000
     38 N32         41.3730   -39.9770    27.1130 nb         1 6IK      -0.290000
     39 N34         41.7440   -40.7240    24.9900 nu         1 6IK      -0.931100
     40 O01         45.3300   -36.9710    25.8720 oh         1 6IK      -0.648000
     41 O23         43.9780   -34.7420    22.0410 o          1 6IK      -0.604100
     42 H1          44.6990   -27.8660    20.6100 h1         1 6IK       0.041700
     43 H2          43.2030   -28.3780    19.8260 h1         1 6IK       0.041700
     44 H3          40.4270   -26.5220    21.2650 hc         1 6IK       0.089700
     45 H4          42.1850   -26.0280    18.7650 hc         1 6IK       0.070200
     46 H5          40.3970   -26.3600    18.7820 hc         1 6IK       0.070200
     47 H6          40.5460   -26.0560    23.4650 hc         1 6IK       0.052700
     48 H7          41.6360   -26.2440    24.8460 hc         1 6IK       0.052700
     49 H8          44.6270   -27.1560    22.9530 h1         1 6IK       0.048700
     50 H9          43.3510   -28.0080    23.8590 h1         1 6IK       0.048700
     51 H10         41.9980   -30.4540    20.7640 ha         1 6IK       0.120000
     52 H11         42.3680   -32.7590    21.5230 ha         1 6IK       0.122000
     53 H12         46.1410   -34.7520    26.9000 hc         1 6IK       0.044700
     54 H13         44.8610   -33.7290    26.2670 hc         1 6IK       0.044700
     55 H14         42.0950   -35.4840    28.1820 h1         1 6IK       0.064200
     56 H15         42.3850   -34.2280    26.9840 h1         1 6IK       0.064200
     57 H16         46.7560   -35.2870    24.5000 h1         1 6IK       0.063200
     58 H17         45.5830   -36.0460    23.4290 h1         1 6IK       0.063200
     59 H18         46.4000   -31.7430    22.5820 ha         1 6IK       0.122000
     60 H19         46.0310   -29.4640    21.7790 ha         1 6IK       0.120000
     61 H20         43.3900   -25.7680    20.9350 h1         1 6IK       0.033700
     62 H21         40.0360   -24.3030    20.2020 hc         1 6IK       0.070200
     63 H22         41.8250   -23.9810    20.1810 hc         1 6IK       0.070200
     64 H23         41.3450   -23.7060    23.1480 hc         1 6IK       0.050700
     65 H24         41.7650   -23.7620    24.8670 hc         1 6IK       0.050700
     66 H25         43.9830   -24.7520    24.3120 hc         1 6IK       0.052700
     67 H26         43.7830   -24.0200    22.7100 hc         1 6IK       0.052700
     68 H27         44.5070   -36.0030    28.2750 hc         1 6IK       0.058200
     69 H28         44.2780   -34.2860    28.5520 hc         1 6IK       0.058200
     70 H29         43.0250   -34.7750    24.7930 h1         1 6IK       0.068700
     71 H30         43.1910   -36.4320    24.2680 h1         1 6IK       0.068700
     72 H31         41.0960   -39.1950    28.9770 h5         1 6IK       0.038100
     73 H32         42.9420   -40.0810    23.4170 h1         1 6IK       0.046700
     74 H33         41.2190   -39.9930    23.0810 h1         1 6IK       0.046700
     75 H34         40.2810   -41.7020    21.7640 ha         1 6IK       0.117500
     76 H35         40.4000   -43.9400    20.7360 ha         1 6IK       0.115000
     77 H36         42.2460   -45.4800    21.3250 ha         1 6IK       0.114000
     78 H37         43.9720   -44.7610    22.9470 ha         1 6IK       0.115000
     79 H38         43.8550   -42.5230    23.9680 ha         1 6IK       0.117500
     80 H39         42.5050   -38.2070    24.4860 ha         1 6IK       0.125000
     81 H40         45.7740   -33.1910    24.1030 hn         1 6IK       0.318500
     82 H42         41.2450   -41.5410    25.3050 hn         1 6IK       0.504000
     83 H43         45.1490   -37.6270    25.1880 ho         1 6IK       0.446000
     84 C05         44.5660   -33.8240    22.5960 c          1 6IK       0.614700
@<TRIPOS>BOND
     1     1    15 1   
     2     1    35 1   
     3     1    42 1   
     4     1    43 1   
     5     2     3 1   
     6     2    16 1   
     7     2    17 1   
     8     2    44 1   
     9     3    17 1   
    10     3    45 1   
    11     3    46 1   
    12     4    18 1   
    13     4    19 1   
    14     4    47 1   
    15     4    48 1   
    16     5    18 1   
    17     5    35 1   
    18     5    49 1   
    19     5    50 1   
    20     6     7 ar  
    21     6    15 ar  
    22     6    51 1   
    23     7    12 ar  
    24     7    52 1   
    25     8    10 1   
    26     8    21 1   
    27     8    53 1   
    28     8    54 1   
    29     9    21 1   
    30     9    36 1   
    31     9    55 1   
    32     9    56 1   
    33    10    11 1   
    34    10    22 1   
    35    10    40 1   
    36    11    34 1   
    37    11    57 1   
    38    11    58 1   
    39    12    13 ar  
    40    12    84 1   
    41    13    14 ar  
    42    13    59 1   
    43    14    15 ar  
    44    14    60 1   
    45    16    18 1   
    46    16    35 1   
    47    16    61 1   
    48    17    62 1   
    49    17    63 1   
    50    18    20 1   
    51    19    20 1   
    52    19    64 1   
    53    19    65 1   
    54    20    66 1   
    55    20    67 1   
    56    21    68 1   
    57    21    69 1   
    58    22    36 1   
    59    22    70 1   
    60    22    71 1   
    61    23    33 ar  
    62    23    36 1   
    63    23    37 ar  
    64    24    37 ar  
    65    24    38 ar  
    66    24    72 1   
    67    25    33 ar  
    68    25    38 ar  
    69    25    39 1   
    70    26    27 1   
    71    26    39 1   
    72    26    73 1   
    73    26    74 1   
    74    27    28 ar  
    75    27    32 ar  
    76    28    29 ar  
    77    28    75 1   
    78    29    30 ar  
    79    29    76 1   
    80    30    31 ar  
    81    30    77 1   
    82    31    32 ar  
    83    31    78 1   
    84    32    79 1   
    85    33    80 1   
    86    34    81 1   
    87    34    84 1   
    88    39    82 1   
    89    40    83 1   
    90    41    84 2   
@<TRIPOS>SUBSTRUCTURE
     1 6IK         1 TEMP              0 ****  ****    0 ROOT
