@<TRIPOS>MOLECULE
6IK
   84    90     1     0     0
SMALL
No Charge or Current Charge


@<TRIPOS>ATOM
      1 C10         44.0220   -28.1920    21.0330 c3         1 6IK       0.208100
      2 C13         41.3590   -25.9690    20.4400 cx         1 6IK      -0.108700
      3 C15         41.6480   -25.2020    19.1710 cx         1 6IK      -0.129900
      4 C17         40.3830   -26.8770    23.1740 cy         1 6IK      -0.070400
      5 C20         42.8870   -27.5050    23.2960 cy         1 6IK       0.159800
      6 C21         43.5490   -30.6880    20.9230 ca         1 6IK      -0.104500
      7 C22         43.8260   -32.0160    21.2880 ca         1 6IK      -0.076500
      8 C24         46.2440   -34.7250    26.3910 c6         1 6IK      -0.063400
      9 C26         44.0420   -35.4210    27.5360 c6         1 6IK       0.217800
     10 C02         45.9430   -35.7430    25.2500 c6         1 6IK       0.133000
     11 C03         46.6180   -35.3220    23.9020 c3         1 6IK       0.073000
     12 C06         44.8900   -32.3200    22.1680 ca         1 6IK      -0.153600
     13 C07         45.6680   -31.2500    22.6760 ca         1 6IK      -0.076500
     14 C08         45.3870   -29.9230    22.3080 ca         1 6IK      -0.104500
     15 C09         44.3280   -29.6330    21.4290 ca         1 6IK      -0.056300
     16 C12         42.4010   -26.2060    21.5470 cy         1 6IK       0.200500
     17 C14         40.6690   -24.6510    20.1790 cx         1 6IK      -0.129900
     18 C16         41.8380   -26.4340    22.9670 cy         1 6IK      -0.094000
     19 C18         40.2690   -25.3930    23.7800 cy         1 6IK      -0.092400
     20 C19         41.8630   -25.2280    23.8970 cy         1 6IK      -0.070400
     21 C25         45.5560   -35.1410    27.7220 c6         1 6IK      -0.099400
     22 C27         44.3950   -35.8830    25.1180 c6         1 6IK       0.188800
     23 C29         42.6780   -37.2170    26.3820 ca         1 6IK       0.418900
     24 C31         40.5910   -37.7490    27.1690 ca         1 6IK       0.193900
     25 C33         41.4800   -39.1220    25.5820 ca         1 6IK       0.398900
     26 C35         42.2710   -40.7910    23.8170 c3         1 6IK       0.277100
     27 C36         41.6870   -42.0410    23.1750 ca         1 6IK      -0.114300
     28 C37         40.9040   -41.9420    22.0070 ca         1 6IK      -0.091500
     29 C38         40.3640   -43.0970    21.4150 ca         1 6IK      -0.113500
     30 C39         40.6030   -44.3580    21.9870 ca         1 6IK      -0.100000
     31 C40         41.3810   -44.4640    23.1520 ca         1 6IK      -0.113500
     32 C41         41.9210   -43.3090    23.7450 ca         1 6IK      -0.091500
     33 C42         42.6320   -38.3350    25.5420 ca         1 6IK      -0.373000
     34 N04         46.2150   -33.9990    23.3940 ns         1 6IK      -0.503900
     35 N11         42.8920   -27.6260    21.7720 nq         1 6IK      -0.705600
     36 N28         43.8100   -36.3740    26.4070 nh         1 6IK      -0.760300
     37 N30         41.6550   -36.9240    27.2080 nb         1 6IK      -0.297000
     38 N32         40.4510   -38.8390    26.3900 nb         1 6IK      -0.290000
     39 N34         41.3270   -40.2470    24.7970 nu         1 6IK      -0.931100
     40 O01         46.4650   -37.0230    25.6280 oh         1 6IK      -0.648000
     41 O23         44.4690   -34.6840    22.1210 o          1 6IK      -0.604100
     42 H1          44.9080   -27.5670    21.2060 h1         1 6IK       0.041700
     43 H2          43.7950   -28.1550    19.9590 h1         1 6IK       0.041700
     44 H3          40.7600   -26.8640    20.2960 hc         1 6IK       0.089700
     45 H4          42.6140   -24.7090    19.0820 hc         1 6IK       0.070200
     46 H5          41.2510   -25.5970    18.2390 hc         1 6IK       0.070200
     47 H6          39.7640   -27.0870    22.2980 hc         1 6IK       0.052700
     48 H7          40.2420   -27.6720    23.9130 hc         1 6IK       0.052700
     49 H8          43.8130   -27.1080    23.7300 h1         1 6IK       0.048700
     50 H9          42.5290   -28.3780    23.8550 h1         1 6IK       0.048700
     51 H10         42.7240   -30.4750    20.2480 ha         1 6IK       0.120000
     52 H11         43.2060   -32.8120    20.8810 ha         1 6IK       0.122000
     53 H12         47.3280   -34.6350    26.5450 hc         1 6IK       0.044700
     54 H13         45.8890   -33.7250    26.1050 hc         1 6IK       0.044700
     55 H14         43.6510   -35.8260    28.4820 h1         1 6IK       0.064200
     56 H15         43.5160   -34.4740    27.3430 h1         1 6IK       0.064200
     57 H16         47.7060   -35.3130    24.0460 h1         1 6IK       0.063200
     58 H17         46.3960   -36.0820    23.1400 h1         1 6IK       0.063200
     59 H18         46.4940   -31.4260    23.3600 ha         1 6IK       0.122000
     60 H19         45.9940   -29.1150    22.7110 ha         1 6IK       0.120000
     61 H20         43.1940   -25.4490    21.5060 h1         1 6IK       0.033700
     62 H21         39.6100   -24.6760    19.9310 hc         1 6IK       0.070200
     63 H22         40.9780   -23.7910    20.7690 hc         1 6IK       0.070200
     64 H23         39.8090   -24.6780    23.0890 hc         1 6IK       0.050700
     65 H24         39.7270   -25.3240    24.7290 hc         1 6IK       0.050700
     66 H25         42.2670   -25.4150    24.8980 hc         1 6IK       0.052700
     67 H26         42.2810   -24.2990    23.4940 hc         1 6IK       0.052700
     68 H27         46.0420   -36.0390    28.1270 hc         1 6IK       0.058200
     69 H28         45.6940   -34.3550    28.4750 hc         1 6IK       0.058200
     70 H29         43.9580   -34.9080    24.8580 h1         1 6IK       0.068700
     71 H30         44.1680   -36.5630    24.2840 h1         1 6IK       0.068700
     72 H31         39.7620   -37.5110    27.8330 h5         1 6IK       0.038100
     73 H32         43.2230   -41.0400    24.3060 h1         1 6IK       0.046700
     74 H33         42.4820   -40.0430    23.0390 h1         1 6IK       0.046700
     75 H34         40.7120   -40.9680    21.5600 ha         1 6IK       0.117500
     76 H35         39.7610   -43.0140    20.5140 ha         1 6IK       0.115000
     77 H36         40.1850   -45.2520    21.5280 ha         1 6IK       0.114000
     78 H37         41.5650   -45.4390    23.5960 ha         1 6IK       0.115000
     79 H38         42.5210   -43.3980    24.6490 ha         1 6IK       0.117500
     80 H39         43.4650   -38.5850    24.8970 ha         1 6IK       0.125000
     81 H40         46.7490   -33.1920    23.6880 hn         1 6IK       0.318500
     82 H42         40.4440   -40.7440    24.9110 hn         1 6IK       0.504000
     83 H43         45.7540   -37.3920    26.2030 ho         1 6IK       0.446000
     84 C05         45.1560   -33.7650    22.5430 c          1 6IK       0.614700
@<TRIPOS>BOND
     1     1    15 1   
     2     1    35 1   
     3     1    42 1   
     4     1    43 1   
     5     2     3 1   
     6     2    16 1   
     7     2    17 1   
     8     2    44 1   
     9     3    17 1   
    10     3    45 1   
    11     3    46 1   
    12     4    18 1   
    13     4    19 1   
    14     4    47 1   
    15     4    48 1   
    16     5    18 1   
    17     5    35 1   
    18     5    49 1   
    19     5    50 1   
    20     6     7 ar  
    21     6    15 ar  
    22     6    51 1   
    23     7    12 ar  
    24     7    52 1   
    25     8    10 1   
    26     8    21 1   
    27     8    53 1   
    28     8    54 1   
    29     9    21 1   
    30     9    36 1   
    31     9    55 1   
    32     9    56 1   
    33    10    11 1   
    34    10    22 1   
    35    10    40 1   
    36    11    34 1   
    37    11    57 1   
    38    11    58 1   
    39    12    13 ar  
    40    12    84 1   
    41    13    14 ar  
    42    13    59 1   
    43    14    15 ar  
    44    14    60 1   
    45    16    18 1   
    46    16    35 1   
    47    16    61 1   
    48    17    62 1   
    49    17    63 1   
    50    18    20 1   
    51    19    20 1   
    52    19    64 1   
    53    19    65 1   
    54    20    66 1   
    55    20    67 1   
    56    21    68 1   
    57    21    69 1   
    58    22    36 1   
    59    22    70 1   
    60    22    71 1   
    61    23    33 ar  
    62    23    36 1   
    63    23    37 ar  
    64    24    37 ar  
    65    24    38 ar  
    66    24    72 1   
    67    25    33 ar  
    68    25    38 ar  
    69    25    39 1   
    70    26    27 1   
    71    26    39 1   
    72    26    73 1   
    73    26    74 1   
    74    27    28 ar  
    75    27    32 ar  
    76    28    29 ar  
    77    28    75 1   
    78    29    30 ar  
    79    29    76 1   
    80    30    31 ar  
    81    30    77 1   
    82    31    32 ar  
    83    31    78 1   
    84    32    79 1   
    85    33    80 1   
    86    34    81 1   
    87    34    84 1   
    88    39    82 1   
    89    40    83 1   
    90    41    84 2   
@<TRIPOS>SUBSTRUCTURE
     1 6IK         1 TEMP              0 ****  ****    0 ROOT
