@<TRIPOS>MOLECULE
6IN
   51    53     1     0     0
SMALL
No Charge or Current Charge


@<TRIPOS>ATOM
      1 C1          -0.3150     0.5330    -1.4040 ca         1 6IN       0.142100
      2 C2           0.9810     0.8950    -0.9410 ca         1 6IN      -0.170000
      3 C3           1.2060     1.1470     0.4300 ca         1 6IN      -0.092000
      4 C4           0.1190     1.0310     1.3090 ca         1 6IN      -0.081200
      5 C5          -1.1240     0.6780     0.8630 ca         1 6IN      -0.047800
      6 C6          -1.3820     0.4220    -0.4900 ca         1 6IN      -0.127000
      7 N10          0.0620     1.2150     2.6840 na         1 6IN      -0.092700
      8 C7          -1.2410     0.9640     3.1610 cc         1 6IN      -0.027300
      9 C12         -1.9830     0.6390     2.0270 cd         1 6IN      -0.144400
     10 C13          1.2540     1.5950     3.4690 c3         1 6IN       0.127900
     11 C14          2.2360     0.4520     3.7340 ca         1 6IN      -0.115300
     12 C17          1.7890    -0.8760     3.9080 ca         1 6IN      -0.097500
     13 C18          2.7110    -1.9090     4.1530 ca         1 6IN      -0.110500
     14 C19          4.0840    -1.6250     4.2310 ca         1 6IN      -0.112000
     15 C20          4.5350    -0.3050     4.0640 ca         1 6IN      -0.110500
     16 C21          3.6150     0.7290     3.8190 ca         1 6IN      -0.097500
     17 C27         -1.6620     1.0460     4.6070 c3         1 6IN      -0.036900
     18 C32         -3.4530     0.2800     2.0010 c3         1 6IN      -0.075200
     19 C34         -3.7080    -1.2250     2.1780 c          1 6IN       0.605100
     20 N37         -4.0430    -1.9140     1.0650 nt         1 6IN      -0.615000
     21 O40         -3.6210    -1.8020     3.2500 o          1 6IN      -0.606100
     22 O41         -0.5810     0.2780    -2.7340 os         1 6IN      -0.349100
     23 C42          0.4350     0.3620    -3.7480 c3         1 6IN       0.152600
     24 C43         -0.2200     0.0150    -5.1000 c3         1 6IN      -0.058400
     25 C46          0.7720     0.0680    -6.2890 c3         1 6IN      -0.208400
     26 C49          0.0480    -0.2870    -7.5980 c          1 6IN       0.720000
     27 O52         -0.0100    -1.4630    -7.9240 o          1 6IN      -0.738000
     28 O54         -0.4830     0.6160    -8.2260 o          1 6IN      -0.738000
     29 H2           1.8180     0.9840    -1.6280 ha         1 6IN       0.122000
     30 H3           2.1970     1.4190     0.7860 ha         1 6IN       0.108000
     31 H6          -2.3740     0.1430    -0.8320 ha         1 6IN       0.124000
     32 H131         1.7700     2.4050     2.9380 h1         1 6IN       0.059200
     33 H132         0.9250     2.0070     4.4310 h1         1 6IN       0.059200
     34 H17          0.7290    -1.1150     3.8540 ha         1 6IN       0.124500
     35 H18          2.3590    -2.9300     4.2840 ha         1 6IN       0.112000
     36 H19          4.7960    -2.4250     4.4210 ha         1 6IN       0.108000
     37 H20          5.5980    -0.0830     4.1260 ha         1 6IN       0.112000
     38 H21          3.9770     1.7470     3.6930 ha         1 6IN       0.124500
     39 H271        -1.7920     2.0900     4.9140 hc         1 6IN       0.045700
     40 H272        -2.6090     0.5230     4.7800 hc         1 6IN       0.045700
     41 H273        -0.9110     0.5900     5.2620 hc         1 6IN       0.045700
     42 H321        -3.9700     0.8130     2.8070 hc         1 6IN       0.054700
     43 H322        -3.8760     0.6080     1.0450 hc         1 6IN       0.054700
     44 H371        -4.2170    -2.9060     1.1320 hn         1 6IN       0.309000
     45 H372        -4.1130    -1.4400     0.1770 hn         1 6IN       0.309000
     46 H421         0.8540     1.3750    -3.7920 h1         1 6IN       0.020700
     47 H422         1.2470    -0.3480    -3.5410 h1         1 6IN       0.020700
     48 H431        -0.6570    -0.9890    -5.0370 hc         1 6IN       0.055200
     49 H432        -1.0450     0.7140    -5.2850 hc         1 6IN       0.055200
     50 H461         1.1450     1.1000    -6.3230 hc         1 6IN       0.016200
     51 H462         1.5490    -0.6740    -6.0650 hc         1 6IN       0.016200
@<TRIPOS>BOND
     1     1     2 ar  
     2     1     6 ar  
     3     1    22 1   
     4     2     3 ar  
     5     2    29 1   
     6     3     4 ar  
     7     3    30 1   
     8     4     5 ar  
     9     4     7 1   
    10     5     6 ar  
    11     5     9 1   
    12     6    31 1   
    13     7     8 1   
    14     7    10 1   
    15     8     9 2   
    16     8    17 1   
    17     9    18 1   
    18    10    11 1   
    19    10    32 1   
    20    10    33 1   
    21    11    12 ar  
    22    11    16 ar  
    23    12    13 ar  
    24    12    34 1   
    25    13    14 ar  
    26    13    35 1   
    27    14    15 ar  
    28    14    36 1   
    29    15    16 ar  
    30    15    37 1   
    31    16    38 1   
    32    17    39 1   
    33    17    40 1   
    34    17    41 1   
    35    18    19 1   
    36    18    42 1   
    37    18    43 1   
    38    19    20 1   
    39    19    21 2   
    40    20    44 1   
    41    20    45 1   
    42    22    23 1   
    43    23    24 1   
    44    23    46 1   
    45    23    47 1   
    46    24    25 1   
    47    24    48 1   
    48    24    49 1   
    49    25    26 1   
    50    25    50 1   
    51    25    51 1   
    52    26    27 1   
    53    26    28 1   
@<TRIPOS>SUBSTRUCTURE
     1 6IN         1 TEMP              0 ****  ****    0 ROOT
