@<TRIPOS>MOLECULE
6IN
   51    53     1     0     0
SMALL
abcg2


@<TRIPOS>ATOM
      1 C1          -0.3510     0.6690    -1.4870 ca         1 6IN       0.142100
      2 C2           0.9190     1.1200    -1.0880 ca         1 6IN      -0.170000
      3 C3           1.1890     1.4040     0.2420 ca         1 6IN      -0.092000
      4 C4           0.1730     1.2390     1.1710 ca         1 6IN      -0.081200
      5 C5          -1.1050     0.7850     0.7890 ca         1 6IN      -0.047800
      6 C6          -1.3650     0.5020    -0.5520 ca         1 6IN      -0.127000
      7 N10          0.1600     1.4400     2.5300 na         1 6IN      -0.092700
      8 C7          -1.0800     1.0900     3.0170 cc         1 6IN      -0.027300
      9 C12         -1.8880     0.7010     1.9830 cd         1 6IN      -0.144400
     10 C13          1.3340     1.6810     3.3220 c3         1 6IN       0.127900
     11 C14          2.1320     0.4330     3.6270 ca         1 6IN      -0.115300
     12 C17          1.6070    -0.8440     3.4580 ca         1 6IN      -0.097500
     13 C18          2.3660    -1.9640     3.7790 ca         1 6IN      -0.110500
     14 C19          3.6550    -1.8210     4.2730 ca         1 6IN      -0.112000
     15 C20          4.1840    -0.5480     4.4440 ca         1 6IN      -0.110500
     16 C21          3.4270     0.5680     4.1210 ca         1 6IN      -0.097500
     17 C27         -1.3760     1.1380     4.4720 c3         1 6IN      -0.036900
     18 C32         -3.2740     0.1750     2.0780 c3         1 6IN      -0.075200
     19 C34         -3.3040    -1.3410     2.2330 c          1 6IN       0.605100
     20 N37         -4.3910    -1.9360     1.7190 nt         1 6IN      -0.615000
     21 O40         -2.4160    -1.9510     2.8070 o          1 6IN      -0.606100
     22 O41         -0.6670     0.3690    -2.7710 os         1 6IN      -0.349100
     23 C42          0.3430     0.4400    -3.7620 c3         1 6IN       0.152600
     24 C43         -0.2330    -0.0360    -5.0800 c3         1 6IN      -0.058400
     25 C46          0.8170     0.0120    -6.1790 c3         1 6IN      -0.208400
     26 C49          0.3560    -0.4840    -7.5620 c          1 6IN       0.720000
     27 O52          1.2320    -0.5040    -8.4510 o          1 6IN      -0.738000
     28 O54         -0.8370    -0.8190    -7.6920 o          1 6IN      -0.738000
     29 H2           1.7160     1.2480    -1.8070 ha         1 6IN       0.122000
     30 H3           2.1770     1.7400     0.5310 ha         1 6IN       0.108000
     31 H6          -2.3380     0.1470    -0.8720 ha         1 6IN       0.124000
     32 H131         1.9650     2.4070     2.8040 h1         1 6IN       0.059200
     33 H132         1.0360     2.1660     4.2530 h1         1 6IN       0.059200
     34 H17          0.6010    -0.9860     3.0780 ha         1 6IN       0.124500
     35 H18          1.9460    -2.9510     3.6400 ha         1 6IN       0.112000
     36 H19          4.2440    -2.6960     4.5190 ha         1 6IN       0.108000
     37 H20          5.1890    -0.4230     4.8270 ha         1 6IN       0.112000
     38 H21          3.8490     1.5580     4.2550 ha         1 6IN       0.124500
     39 H271        -1.1990     2.1300     4.8910 hc         1 6IN       0.045700
     40 H272        -2.4160     0.8790     4.6550 hc         1 6IN       0.045700
     41 H273        -0.7600     0.4310     5.0320 hc         1 6IN       0.045700
     42 H321        -3.7900     0.5890     2.9510 hc         1 6IN       0.054700
     43 H322        -3.8700     0.4810     1.2150 hc         1 6IN       0.054700
     44 H371        -4.5300    -2.9280     1.8210 hn         1 6IN       0.309000
     45 H372        -5.1070    -1.4150     1.2440 hn         1 6IN       0.309000
     46 H421         0.7140     1.4680    -3.8590 h1         1 6IN       0.020700
     47 H422         1.1980    -0.1870    -3.4800 h1         1 6IN       0.020700
     48 H431        -0.6040    -1.0570    -4.9640 hc         1 6IN       0.055200
     49 H432        -1.0900     0.5840    -5.3520 hc         1 6IN       0.055200
     50 H461         1.1870     1.0380    -6.2950 hc         1 6IN       0.016200
     51 H462         1.6950    -0.5720    -5.8810 hc         1 6IN       0.016200
@<TRIPOS>BOND
     1     1     2 ar  
     2     1     6 ar  
     3     1    22 1   
     4     2     3 ar  
     5     2    29 1   
     6     3     4 ar  
     7     3    30 1   
     8     4     5 ar  
     9     4     7 1   
    10     5     6 ar  
    11     5     9 1   
    12     6    31 1   
    13     7     8 1   
    14     7    10 1   
    15     8     9 2   
    16     8    17 1   
    17     9    18 1   
    18    10    11 1   
    19    10    32 1   
    20    10    33 1   
    21    11    12 ar  
    22    11    16 ar  
    23    12    13 ar  
    24    12    34 1   
    25    13    14 ar  
    26    13    35 1   
    27    14    15 ar  
    28    14    36 1   
    29    15    16 ar  
    30    15    37 1   
    31    16    38 1   
    32    17    39 1   
    33    17    40 1   
    34    17    41 1   
    35    18    19 1   
    36    18    42 1   
    37    18    43 1   
    38    19    20 1   
    39    19    21 2   
    40    20    44 1   
    41    20    45 1   
    42    22    23 1   
    43    23    24 1   
    44    23    46 1   
    45    23    47 1   
    46    24    25 1   
    47    24    48 1   
    48    24    49 1   
    49    25    26 1   
    50    25    50 1   
    51    25    51 1   
    52    26    27 1   
    53    26    28 1   
@<TRIPOS>SUBSTRUCTURE
     1 6IN         1 TEMP              0 ****  ****    0 ROOT
