@<TRIPOS>MOLECULE
6IO
   44    46     1     0     0
SMALL
abcg2


@<TRIPOS>ATOM
      1 C1          58.1370     1.0420    96.9950 ca         1 6IO      -0.275500
      2 C2          58.0780     9.7310    98.7560 ca         1 6IO      -0.275500
      3 C3          57.7010    -0.1290    96.4390 ca         1 6IO       0.138900
      4 C7          56.0920    -0.2960    97.9960 ca         1 6IO       0.081300
      5 C8          57.8980     9.8470   101.3880 ca         1 6IO       0.081300
      6 C9          55.8800     4.0010    99.5010 c6         1 6IO      -0.090650
      7 C10         58.0940     4.1130   100.7080 c6         1 6IO      -0.090650
      8 C11         56.2180     5.2990    98.7670 c6         1 6IO      -0.090650
      9 C12         58.4160     5.4250    99.9900 c6         1 6IO      -0.090650
     10 C13         57.1360     3.2200    99.9180 c6         1 6IO       0.237500
     11 C14         57.1350     6.1760    99.6160 c6         1 6IO       0.237500
     12 C15         54.9020    -1.0310    98.6060 c3         1 6IO       0.267200
     13 C16         57.7360     9.8800   102.9050 c3         1 6IO       0.267200
     14 N18         58.2450    10.9710   100.7960 nb         1 6IO      -0.173500
     15 C4          58.3330    10.8840    99.4450 ca         1 6IO       0.138900
     16 C5          57.4510     1.5200    98.1410 ca         1 6IO       0.391400
     17 C6          57.7130     8.5850    99.5070 ca         1 6IO       0.391400
     18 N17         56.6550    -0.8350    96.9340 nb         1 6IO      -0.173500
     19 N19         56.4070     0.8230    98.6300 nb         1 6IO      -0.236500
     20 N20         57.6320     8.6670   100.8490 nb         1 6IO      -0.236500
     21 N21         57.8240     2.6490    98.7600 nu         1 6IO      -0.924100
     22 N22         57.4310     7.4180    98.9110 nu         1 6IO      -0.924100
     23 F23         53.8010    -0.2480    98.6180 f          1 6IO      -0.099333
     24 F24         55.1490    -1.3760    99.8890 f          1 6IO      -0.099333
     25 F25         54.5850    -2.1530    97.9470 f          1 6IO      -0.099333
     26 F26         56.4320     9.7530   103.2470 f          1 6IO      -0.099333
     27 F27         58.3960     8.8660   103.5010 f          1 6IO      -0.099333
     28 F28         58.1800    11.0200   103.4510 f          1 6IO      -0.099333
     29 H1          58.9740     1.5870    96.5810 ha         1 6IO       0.133000
     30 H2          58.1520     9.6880    97.6780 ha         1 6IO       0.133000
     31 H3          58.1880    -0.5410    95.5640 h4         1 6IO       0.030600
     32 H4          55.3110     4.2300   100.4060 hc         1 6IO       0.056200
     33 H5          55.2480     3.3670    98.8770 hc         1 6IO       0.056200
     34 H6          59.0120     3.5640   100.9320 hc         1 6IO       0.056200
     35 H7          57.6160     4.3400   101.6640 hc         1 6IO       0.056200
     36 H8          55.3020     5.8440    98.5300 hc         1 6IO       0.056200
     37 H9          56.7150     5.0740    97.8180 hc         1 6IO       0.056200
     38 H10         58.9920     5.2440    99.0770 hc         1 6IO       0.056200
     39 H11         59.0370     6.0550   100.6300 hc         1 6IO       0.056200
     40 H12         56.8320     2.3830   100.5460 h1         1 6IO       0.090700
     41 H13         56.6110     6.4490   100.5340 h1         1 6IO       0.090700
     42 H14         58.6210    11.7890    98.9240 h4         1 6IO       0.030600
     43 H15         58.5870     3.1630    98.3490 hn         1 6IO       0.495000
     44 H16         57.5560     7.3670    97.9110 hn         1 6IO       0.495000
@<TRIPOS>BOND
     1     1     3 ar  
     2     1    16 ar  
     3     1    29 1   
     4     2    15 ar  
     5     2    17 ar  
     6     2    30 1   
     7     3    18 ar  
     8     3    31 1   
     9     4    12 1   
    10     4    18 ar  
    11     4    19 ar  
    12     5    13 1   
    13     5    14 ar  
    14     5    20 ar  
    15     6     8 1   
    16     6    10 1   
    17     6    32 1   
    18     6    33 1   
    19     7     9 1   
    20     7    10 1   
    21     7    34 1   
    22     7    35 1   
    23     8    11 1   
    24     8    36 1   
    25     8    37 1   
    26     9    11 1   
    27     9    38 1   
    28     9    39 1   
    29    10    21 1   
    30    10    40 1   
    31    11    22 1   
    32    11    41 1   
    33    12    23 1   
    34    12    24 1   
    35    12    25 1   
    36    13    26 1   
    37    13    27 1   
    38    13    28 1   
    39    14    15 ar  
    40    15    42 1   
    41    16    19 ar  
    42    16    21 1   
    43    17    20 ar  
    44    17    22 1   
    45    21    43 1   
    46    22    44 1   
@<TRIPOS>SUBSTRUCTURE
     1 6IO         1 TEMP              0 ****  ****    0 ROOT
