@<TRIPOS>MOLECULE
6IO
   44    46     1     0     0
SMALL
No Charge or Current Charge


@<TRIPOS>ATOM
      1 C1          58.1510     1.2620    97.0080 ca         1 6IO      -0.275500
      2 C2          58.1310     9.5950    98.6440 ca         1 6IO      -0.275500
      3 C3          57.7690     0.1290    96.2720 ca         1 6IO       0.138900
      4 C7          56.1720    -0.3570    97.8600 ca         1 6IO       0.081300
      5 C8          58.0630     9.9400   101.3160 ca         1 6IO       0.081300
      6 C9          55.7450     3.8870    99.6000 c6         1 6IO      -0.090650
      7 C10         57.9160     4.1290   100.9310 c6         1 6IO      -0.090650
      8 C11         56.0620     5.2110    98.8530 c6         1 6IO      -0.090650
      9 C12         58.2170     5.4610   100.1880 c6         1 6IO      -0.090650
     10 C13         57.0280     3.1630   100.1000 c6         1 6IO       0.237500
     11 C14         56.9110     6.1630    99.7330 c6         1 6IO       0.237500
     12 C15         55.0430    -1.2710    98.3630 c3         1 6IO       0.267200
     13 C16         58.0130    10.1220   102.8410 c3         1 6IO       0.267200
     14 N18         58.5270    10.9710   100.5710 nb         1 6IO      -0.173500
     15 C4          58.5590    10.7940    99.2350 ca         1 6IO       0.138900
     16 C5          57.4670     1.5180    98.1990 ca         1 6IO       0.391400
     17 C6          57.6670     8.5870    99.4940 ca         1 6IO       0.391400
     18 N17         56.7800    -0.6840    96.6940 nb         1 6IO      -0.173500
     19 N19         56.4790     0.7120    98.6320 nb         1 6IO      -0.236500
     20 N20         57.6280     8.7530   100.8290 nb         1 6IO      -0.236500
     21 N21         57.8040     2.6270    98.9660 nu         1 6IO      -0.924100
     22 N22         57.2310     7.3780    98.9630 nu         1 6IO      -0.924100
     23 F23         53.9320    -0.5690    98.6850 f          1 6IO      -0.099333
     24 F24         55.4130    -1.9510    99.4730 f          1 6IO      -0.099333
     25 F25         54.6630    -2.1960    97.4490 f          1 6IO      -0.099333
     26 F26         56.7410    10.2480   103.2840 f          1 6IO      -0.099333
     27 F27         58.5530     9.0650   103.4940 f          1 6IO      -0.099333
     28 F28         58.6840    11.2200   103.2660 f          1 6IO      -0.099333
     29 H1          58.9480     1.9110    96.6590 ha         1 6IO       0.133000
     30 H2          58.1620     9.4610    97.5670 ha         1 6IO       0.133000
     31 H3          58.2570    -0.1320    95.3340 h4         1 6IO       0.030600
     32 H4          55.1030     4.1070   100.4630 hc         1 6IO       0.056200
     33 H5          55.1590     3.2220    98.9520 hc         1 6IO       0.056200
     34 H6          58.8550     3.6310   101.2110 hc         1 6IO       0.056200
     35 H7          57.4030     4.3560   101.8760 hc         1 6IO       0.056200
     36 H8          55.1220     5.7060    98.5710 hc         1 6IO       0.056200
     37 H9          56.5900     4.9890    97.9160 hc         1 6IO       0.056200
     38 H10         58.8610     5.2680    99.3190 hc         1 6IO       0.056200
     39 H11         58.7880     6.1240   100.8520 hc         1 6IO       0.056200
     40 H12         56.7280     2.3370   100.7650 h1         1 6IO       0.090700
     41 H13         56.3130     6.4180   100.6230 h1         1 6IO       0.090700
     42 H14         58.9330    11.6220    98.6350 h4         1 6IO       0.030600
     43 H15         58.5660     3.1940    98.5980 hn         1 6IO       0.495000
     44 H16         57.2760     7.3050    97.9470 hn         1 6IO       0.495000
@<TRIPOS>BOND
     1     1     3 ar  
     2     1    16 ar  
     3     1    29 1   
     4     2    15 ar  
     5     2    17 ar  
     6     2    30 1   
     7     3    18 ar  
     8     3    31 1   
     9     4    12 1   
    10     4    18 ar  
    11     4    19 ar  
    12     5    13 1   
    13     5    14 ar  
    14     5    20 ar  
    15     6     8 1   
    16     6    10 1   
    17     6    32 1   
    18     6    33 1   
    19     7     9 1   
    20     7    10 1   
    21     7    34 1   
    22     7    35 1   
    23     8    11 1   
    24     8    36 1   
    25     8    37 1   
    26     9    11 1   
    27     9    38 1   
    28     9    39 1   
    29    10    21 1   
    30    10    40 1   
    31    11    22 1   
    32    11    41 1   
    33    12    23 1   
    34    12    24 1   
    35    12    25 1   
    36    13    26 1   
    37    13    27 1   
    38    13    28 1   
    39    14    15 ar  
    40    15    42 1   
    41    16    19 ar  
    42    16    21 1   
    43    17    20 ar  
    44    17    22 1   
    45    21    43 1   
    46    22    44 1   
@<TRIPOS>SUBSTRUCTURE
     1 6IO         1 TEMP              0 ****  ****    0 ROOT
