@<TRIPOS>MOLECULE
6IP
   33    35     1     0     0
SMALL
No Charge or Current Charge


@<TRIPOS>ATOM
      1 N1           0.4120    -4.4970     3.3990 nv         1 6IP      -1.051900
      2 C2           0.2040    -4.1360     2.1300 ca         1 6IP       0.598900
      3 C3          -0.5330    -4.9020     1.2240 ca         1 6IP      -0.237000
      4 C4          -0.6690    -4.4310    -0.0890 ca         1 6IP      -0.038000
      5 C5          -0.0510    -3.2110    -0.4070 ca         1 6IP      -0.222000
      6 C6           0.6640    -2.5150     0.5890 ca         1 6IP       0.405300
      7 C7           1.3460    -1.1860     0.2820 c3         1 6IP      -0.128700
      8 C8           0.3780    -0.0980    -0.2390 c3         1 6IP      -0.023100
      9 C9          -0.7680     0.1800     0.7260 ca         1 6IP      -0.058300
     10 C10         -0.5480     0.9740     1.8800 ca         1 6IP      -0.131000
     11 C11         -1.5990     1.2340     2.7850 ca         1 6IP      -0.060000
     12 C12         -2.8540     0.6810     2.5020 ca         1 6IP      -0.098800
     13 C13         -4.0900     0.7640     3.2170 cc         1 6IP      -0.240200
     14 C14         -5.0260     0.0300     2.4990 cd         1 6IP      -0.167100
     15 N15         -4.3970    -0.5100     1.3480 na         1 6IP      -0.225700
     16 C16         -3.0780    -0.0860     1.3950 ca         1 6IP      -0.044200
     17 C17         -2.0530    -0.3590     0.4790 ca         1 6IP      -0.116000
     18 N18          0.7980    -2.9850     1.8500 nb         1 6IP      -0.737000
     19 HN11         0.3110    -5.4800     3.6270 hn         1 6IP       0.467500
     20 HN12         1.1440    -3.9890     3.8800 hn         1 6IP       0.467500
     21 H3          -0.9880    -5.8400     1.5300 ha         1 6IP       0.118000
     22 H4          -1.2300    -4.9910    -0.8340 ha         1 6IP       0.112000
     23 H5          -0.1250    -2.8090    -1.4130 ha         1 6IP       0.120000
     24 H71          1.8560    -0.8010     1.1740 hc         1 6IP       0.058200
     25 H72          2.1290    -1.3480    -0.4680 hc         1 6IP       0.058200
     26 H81         -0.0130    -0.3970    -1.2190 hc         1 6IP       0.045200
     27 H82          0.9460     0.8240    -0.4140 hc         1 6IP       0.045200
     28 H10          0.4390     1.3880     2.0750 ha         1 6IP       0.105000
     29 H11         -1.4400     1.8410     3.6730 ha         1 6IP       0.111000
     30 H13         -4.2780     1.2960     4.1480 ha         1 6IP       0.202000
     31 H14         -6.0770    -0.1480     2.7170 h4         1 6IP       0.208000
     32 HN15        -4.8250    -1.0910     0.6330 hn         1 6IP       0.346000
     33 H17         -2.2430    -0.9740    -0.3970 ha         1 6IP       0.111000
@<TRIPOS>BOND
     1     1     2 1   
     2     1    19 1   
     3     1    20 1   
     4     2     3 ar  
     5     2    18 ar  
     6     3     4 ar  
     7     3    21 1   
     8     4     5 ar  
     9     4    22 1   
    10     5     6 ar  
    11     5    23 1   
    12     6     7 1   
    13     6    18 ar  
    14     7     8 1   
    15     7    24 1   
    16     7    25 1   
    17     8     9 1   
    18     8    26 1   
    19     8    27 1   
    20     9    10 ar  
    21     9    17 ar  
    22    10    11 ar  
    23    10    28 1   
    24    11    12 ar  
    25    11    29 1   
    26    12    13 1   
    27    12    16 ar  
    28    13    14 2   
    29    13    30 1   
    30    14    15 1   
    31    14    31 1   
    32    15    16 1   
    33    15    32 1   
    34    16    17 ar  
    35    17    33 1   
@<TRIPOS>SUBSTRUCTURE
     1 6IP         1 TEMP              0 ****  ****    0 ROOT
