@<TRIPOS>MOLECULE
6IP
   33    35     1     0     0
SMALL
abcg2


@<TRIPOS>ATOM
      1 N1          -0.4480    -4.1490     3.3500 nv         1 6IP      -1.051900
      2 C2          -0.1790    -3.9090     2.0320 ca         1 6IP       0.598900
      3 C3          -0.5860    -4.8130     1.0370 ca         1 6IP      -0.237000
      4 C4          -0.3180    -4.4930    -0.2770 ca         1 6IP      -0.038000
      5 C5           0.3270    -3.2990    -0.5800 ca         1 6IP      -0.222000
      6 C6           0.6870    -2.4640     0.4710 ca         1 6IP       0.405300
      7 C7           1.3410    -1.1400     0.1980 c3         1 6IP      -0.128700
      8 C8           0.3320    -0.0930    -0.3040 c3         1 6IP      -0.023100
      9 C9          -0.7660     0.1760     0.6860 ca         1 6IP      -0.058300
     10 C10         -0.5450     1.0800     1.7450 ca         1 6IP      -0.131000
     11 C11         -1.5010     1.3260     2.7080 ca         1 6IP      -0.060000
     12 C12         -2.7280     0.6550     2.6340 ca         1 6IP      -0.098800
     13 C13         -3.9200     0.6520     3.4240 cc         1 6IP      -0.240200
     14 C14         -4.7800    -0.2260     2.8300 cd         1 6IP      -0.167100
     15 N15         -4.1950    -0.7650     1.7190 na         1 6IP      -0.225700
     16 C16         -2.9400    -0.2480     1.5700 ca         1 6IP      -0.044200
     17 C17         -1.9730    -0.4930     0.5960 ca         1 6IP      -0.116000
     18 N18          0.4470    -2.7710     1.7430 nb         1 6IP      -0.737000
     19 HN11        -0.6050    -5.1040     3.6250 hn         1 6IP       0.467500
     20 HN12         0.0870    -3.6150     4.0150 hn         1 6IP       0.467500
     21 H3          -1.0890    -5.7340     1.3020 ha         1 6IP       0.118000
     22 H4          -0.6100    -5.1730    -1.0670 ha         1 6IP       0.112000
     23 H5           0.5480    -3.0250    -1.6030 ha         1 6IP       0.120000
     24 H71          1.8180    -0.7780     1.1100 hc         1 6IP       0.058200
     25 H72          2.1210    -1.2580    -0.5570 hc         1 6IP       0.058200
     26 H81         -0.0910    -0.4310    -1.2530 hc         1 6IP       0.045200
     27 H82          0.8770     0.8300    -0.5180 hc         1 6IP       0.045200
     28 H10          0.4070     1.5970     1.7970 ha         1 6IP       0.105000
     29 H11         -1.3060     2.0300     3.5080 ha         1 6IP       0.111000
     30 H13         -4.1130     1.2230     4.3180 ha         1 6IP       0.202000
     31 H14         -5.7790    -0.5150     3.1150 h4         1 6IP       0.208000
     32 HN15        -4.6250    -1.4440     1.1140 hn         1 6IP       0.346000
     33 H17         -2.1540    -1.1990    -0.2060 ha         1 6IP       0.111000
@<TRIPOS>BOND
     1     1     2 1   
     2     1    19 1   
     3     1    20 1   
     4     2     3 ar  
     5     2    18 ar  
     6     3     4 ar  
     7     3    21 1   
     8     4     5 ar  
     9     4    22 1   
    10     5     6 ar  
    11     5    23 1   
    12     6     7 1   
    13     6    18 ar  
    14     7     8 1   
    15     7    24 1   
    16     7    25 1   
    17     8     9 1   
    18     8    26 1   
    19     8    27 1   
    20     9    10 ar  
    21     9    17 ar  
    22    10    11 ar  
    23    10    28 1   
    24    11    12 ar  
    25    11    29 1   
    26    12    13 1   
    27    12    16 ar  
    28    13    14 2   
    29    13    30 1   
    30    14    15 1   
    31    14    31 1   
    32    15    16 1   
    33    15    32 1   
    34    16    17 ar  
    35    17    33 1   
@<TRIPOS>SUBSTRUCTURE
     1 6IP         1 TEMP              0 ****  ****    0 ROOT
