@<TRIPOS>MOLECULE
6IQ
   28    30     1     0     0
SMALL
No Charge or Current Charge


@<TRIPOS>ATOM
      1 N1         -30.1000    -4.5870     1.5490 na         1 6IQ      -0.314800
      2 C4         -32.4450    -1.8580     2.5960 ca         1 6IQ      -0.087000
      3 C5         -31.2090    -2.3940     2.1800 ca         1 6IQ      -0.106000
      4 C6         -31.1370    -3.7790     1.9510 ca         1 6IQ      -0.053200
      5 C7         -30.5980    -5.8830     1.5060 cc         1 6IQ       0.451700
      6 C8         -28.4290    -4.5780    -0.6900 ca         1 6IQ      -0.270500
      7 C10        -27.6440    -5.9560    -2.5570 ca         1 6IQ       0.099000
      8 C13        -29.1460    -3.7710    -1.6050 ca         1 6IQ       0.207000
      9 C1         -32.2170    -4.6010     2.1280 ca         1 6IQ       0.076400
     10 C11        -28.3540    -5.1500    -3.4580 ca         1 6IQ      -0.039000
     11 C12        -29.1030    -4.0620    -2.9800 ca         1 6IQ      -0.119000
     12 C2         -33.4550    -4.0900     2.5420 ca         1 6IQ      -0.047000
     13 C3         -33.5650    -2.7020     2.7760 ca         1 6IQ      -0.126000
     14 C9         -27.6790    -5.6760    -1.1810 ca         1 6IQ      -0.009000
     15 N2         -31.9010    -5.9260     1.8550 nd         1 6IQ      -0.549100
     16 O1         -27.6570    -5.2990     1.7290 o          1 6IQ      -0.507500
     17 O2         -28.2220    -2.8200     1.3350 o          1 6IQ      -0.507500
     18 S1         -28.4590    -4.2480     1.0870 sy         1 6IQ       1.192700
     19 Cl1        -30.1260    -2.3940    -1.1030 cl         1 6IQ      -0.135000
     20 Cl2        -26.7060    -7.3210    -3.1520 cl         1 6IQ      -0.169000
     21 H1         -32.5370    -0.7900     2.7800 ha         1 6IQ       0.118000
     22 H2         -30.3520    -1.7410     2.0450 ha         1 6IQ       0.134000
     23 H3         -29.9900    -6.7330     1.2140 h5         1 6IQ       0.087800
     24 H4         -28.3260    -5.3690    -4.5230 ha         1 6IQ       0.140000
     25 H5         -29.6570    -3.4400    -3.6780 ha         1 6IQ       0.139000
     26 H6         -34.3080    -4.7490     2.6800 ha         1 6IQ       0.133000
     27 H7         -34.5150    -2.2820     3.0970 ha         1 6IQ       0.118000
     28 H8         -27.1150    -6.3190    -0.5080 ha         1 6IQ       0.144000
@<TRIPOS>BOND
     1     1     4 1   
     2     1     5 1   
     3     1    18 1   
     4     2     3 ar  
     5     2    13 ar  
     6     2    21 1   
     7     3     4 ar  
     8     3    22 1   
     9     4     9 ar  
    10     5    15 2   
    11     5    23 1   
    12     6     8 ar  
    13     6    14 ar  
    14     6    18 1   
    15     7    10 ar  
    16     7    14 ar  
    17     7    20 1   
    18     8    11 ar  
    19     8    19 1   
    20     9    12 ar  
    21     9    15 1   
    22    10    11 ar  
    23    10    24 1   
    24    11    25 1   
    25    12    13 ar  
    26    12    26 1   
    27    13    27 1   
    28    14    28 1   
    29    16    18 2   
    30    17    18 2   
@<TRIPOS>SUBSTRUCTURE
     1 6IQ         1 TEMP              0 ****  ****    0 ROOT
