@<TRIPOS>MOLECULE
6IQ
   28    30     1     0     0
SMALL
abcg2


@<TRIPOS>ATOM
      1 N1         -29.6890    -4.6990     1.8350 na         1 6IQ      -0.314800
      2 C4         -32.6130    -2.4390     1.4490 ca         1 6IQ      -0.087000
      3 C5         -31.2760    -2.7720     1.3130 ca         1 6IQ      -0.106000
      4 C6         -30.9020    -4.0200     1.7920 ca         1 6IQ      -0.053200
      5 C7         -29.9380    -5.9240     2.4300 cc         1 6IQ       0.451700
      6 C8         -28.4830    -4.2470    -0.5130 ca         1 6IQ      -0.270500
      7 C10        -29.0390    -5.7110    -2.3300 ca         1 6IQ       0.099000
      8 C13        -28.3830    -3.1740    -1.3970 ca         1 6IQ       0.207000
      9 C1         -31.8110    -4.9070     2.3820 ca         1 6IQ       0.076400
     10 C11        -28.9520    -4.6490    -3.2200 ca         1 6IQ      -0.039000
     11 C12        -28.6210    -3.3950    -2.7500 ca         1 6IQ      -0.119000
     12 C2         -33.1490    -4.5520     2.5130 ca         1 6IQ      -0.047000
     13 C3         -33.5360    -3.3110     2.0400 ca         1 6IQ      -0.126000
     14 C9         -28.7970    -5.5190    -0.9860 ca         1 6IQ      -0.009000
     15 N2         -31.1720    -6.0720     2.7630 nd         1 6IQ      -0.549100
     16 O1         -27.2480    -5.1650     1.6170 o          1 6IQ      -0.507500
     17 O2         -28.0610    -2.7880     1.6780 o          1 6IQ      -0.507500
     18 S1         -28.2060    -4.1530     1.2440 sy         1 6IQ       1.192700
     19 CL1        -27.9650    -1.5730    -0.9370 cl         1 6IQ      -0.135000
     20 CL2        -29.4510    -7.2810    -2.9050 cl         1 6IQ      -0.169000
     21 H1         -32.9510    -1.4760     1.0900 ha         1 6IQ       0.118000
     22 H2         -30.5780    -2.0830     0.8590 ha         1 6IQ       0.134000
     23 H3         -29.1520    -6.6480     2.5810 h5         1 6IQ       0.087800
     24 H4         -29.1400    -4.7950    -4.2750 ha         1 6IQ       0.140000
     25 H5         -28.5460    -2.5690    -3.4430 ha         1 6IQ       0.139000
     26 H6         -33.8590    -5.2290     2.9690 ha         1 6IQ       0.133000
     27 H7         -34.5690    -3.0040     2.1270 ha         1 6IQ       0.118000
     28 H8         -28.8660    -6.3640    -0.3120 ha         1 6IQ       0.144000
@<TRIPOS>BOND
     1     1     4 1   
     2     1     5 1   
     3     1    18 1   
     4     2     3 ar  
     5     2    13 ar  
     6     2    21 1   
     7     3     4 ar  
     8     3    22 1   
     9     4     9 ar  
    10     5    15 2   
    11     5    23 1   
    12     6     8 ar  
    13     6    14 ar  
    14     6    18 1   
    15     7    10 ar  
    16     7    14 ar  
    17     7    20 1   
    18     8    11 ar  
    19     8    19 1   
    20     9    12 ar  
    21     9    15 1   
    22    10    11 ar  
    23    10    24 1   
    24    11    25 1   
    25    12    13 ar  
    26    12    26 1   
    27    13    27 1   
    28    14    28 1   
    29    16    18 2   
    30    17    18 2   
@<TRIPOS>SUBSTRUCTURE
     1 6IQ         1 TEMP              0 ****  ****    0 ROOT
