@<TRIPOS>MOLECULE
6IR
   56    58     1     0     0
SMALL
No Charge or Current Charge


@<TRIPOS>ATOM
      1 C1           7.2870    -2.3460    -0.4330 c          1 6IR       0.613000
      2 N1           8.3350    -1.5390    -0.7130 ns         1 6IR      -0.524900
      3 O1           7.0840    -3.4340    -0.9370 o          1 6IR      -0.575000
      4 S1           6.1490     0.7810    -1.3510 ss         1 6IR      -0.410000
      5 C2           8.2910    -0.2680     0.0160 c5         1 6IR       0.103700
      6 N2           6.5120    -1.7650     0.5090 ns         1 6IR      -0.510900
      7 O2          -0.6810     2.0020     2.3640 o          1 6IR      -0.562100
      8 S2          -7.0940     0.3330    -0.2810 sy         1 6IR       1.157600
      9 C3           7.9800     0.8100    -1.0770 c5         1 6IR       0.030600
     10 N3          -1.2400     1.7880     0.1290 ns         1 6IR      -0.153000
     11 O3          -7.8050     0.8440     0.8920 o          1 6IR      -0.533500
     12 C4           7.0080    -0.4480     0.9280 c5         1 6IR       0.096700
     13 N4          -7.0390    -1.3200    -0.0710 n7         1 6IR      -0.864300
     14 O4          -7.5680     0.5470    -1.6500 o          1 6IR      -0.533500
     15 C5           5.9440     0.6220     0.4820 c5         1 6IR       0.073300
     16 N5          -5.2160    -4.4370    -1.3560 n8         1 6IR      -0.998200
     17 C6           4.4700     0.3270     0.8700 c3         1 6IR      -0.058400
     18 C7           3.4930     1.4950     0.5920 c3         1 6IR      -0.079400
     19 C8           2.0420     1.1860     1.0240 c3         1 6IR      -0.065400
     20 C9           1.0690     2.3570     0.7440 c3         1 6IR      -0.159400
     21 C10         -0.3650     2.0210     1.1810 c          1 6IR       0.609100
     22 C11         -2.6190     1.4460     0.0900 ca         1 6IR       0.041000
     23 C12         -3.2410     1.3990    -1.1710 ca         1 6IR      -0.180000
     24 C13         -4.6010     1.0650    -1.2940 ca         1 6IR       0.015500
     25 C14         -3.3830     1.1430     1.2380 ca         1 6IR      -0.180000
     26 C15         -4.7430     0.8080     1.1230 ca         1 6IR       0.015500
     27 C16         -5.3560     0.7710    -0.1430 ca         1 6IR      -0.350500
     28 C27         -6.0240    -2.0830    -0.8290 c3         1 6IR       0.194800
     29 C28         -6.1940    -3.6120    -0.6000 c3         1 6IR       0.147800
     30 H1           9.0160    -1.8260    -1.4050 hn         1 6IR       0.343500
     31 H2           9.2100    -0.0630     0.5810 h1         1 6IR       0.071700
     32 H3           5.6850    -2.2440     0.8410 hn         1 6IR       0.337500
     33 H4           8.5220     0.6320    -2.0160 h1         1 6IR       0.078200
     34 H5           8.2610     1.8080    -0.7160 h1         1 6IR       0.078200
     35 H6          -0.8170     1.8700    -0.7850 hn         1 6IR       0.152000
     36 H7           7.2340    -0.4050     2.0020 h1         1 6IR       0.063700
     37 H8          -7.9670    -1.5770    -0.4020 hn         1 6IR       0.473000
     38 H9           6.2150     1.5880     0.9300 h1         1 6IR       0.068700
     39 H10         -5.4060    -5.4310    -1.1740 hn         1 6IR       0.396500
     40 H11         -5.3980    -4.3410    -2.3630 hn         1 6IR       0.396500
     41 H13          4.1100    -0.5620     0.3370 hc         1 6IR       0.055200
     42 H14          4.4250     0.0880     1.9400 hc         1 6IR       0.055200
     43 H15          3.8440     2.3900     1.1200 hc         1 6IR       0.045700
     44 H16          3.5030     1.7310    -0.4790 hc         1 6IR       0.045700
     45 H17          1.6910     0.2900     0.4960 hc         1 6IR       0.058200
     46 H18          2.0280     0.9510     2.0960 hc         1 6IR       0.058200
     47 H19          1.4080     3.2330     1.3090 hc         1 6IR       0.061700
     48 H20          1.0910     2.5780    -0.3300 hc         1 6IR       0.061700
     49 H21         -2.6690     1.6240    -2.0680 ha         1 6IR       0.134000
     50 H22         -5.0560     1.0370    -2.2830 ha         1 6IR       0.136500
     51 H23         -2.9430     1.1520     2.2290 ha         1 6IR       0.134000
     52 H24         -5.3150     0.5720     2.0200 ha         1 6IR       0.136500
     53 H25         -6.1060    -1.8750    -1.9050 h1         1 6IR       0.060200
     54 H26         -5.0100    -1.8030    -0.5130 h1         1 6IR       0.060200
     55 H27         -7.2080    -3.9150    -0.8980 h1         1 6IR       0.038200
     56 H28         -6.0750    -3.8270     0.4710 h1         1 6IR       0.038200
@<TRIPOS>BOND
     1     1     2 1   
     2     1     3 2   
     3     1     6 1   
     4     2     5 1   
     5     2    30 1   
     6     4     9 1   
     7     4    15 1   
     8     5     9 1   
     9     5    12 1   
    10     5    31 1   
    11     6    12 1   
    12     6    32 1   
    13     7    21 2   
    14     8    11 2   
    15     8    13 1   
    16     8    14 2   
    17     8    27 1   
    18     9    33 1   
    19     9    34 1   
    20    10    21 1   
    21    10    22 1   
    22    10    35 1   
    23    12    15 1   
    24    12    36 1   
    25    13    28 1   
    26    13    37 1   
    27    15    17 1   
    28    15    38 1   
    29    16    29 1   
    30    16    39 1   
    31    16    40 1   
    32    17    18 1   
    33    17    41 1   
    34    17    42 1   
    35    18    19 1   
    36    18    43 1   
    37    18    44 1   
    38    19    20 1   
    39    19    45 1   
    40    19    46 1   
    41    20    21 1   
    42    20    47 1   
    43    20    48 1   
    44    22    23 ar  
    45    22    25 ar  
    46    23    24 ar  
    47    23    49 1   
    48    24    27 ar  
    49    24    50 1   
    50    25    26 ar  
    51    25    51 1   
    52    26    27 ar  
    53    26    52 1   
    54    28    29 1   
    55    28    53 1   
    56    28    54 1   
    57    29    55 1   
    58    29    56 1   
@<TRIPOS>SUBSTRUCTURE
     1 6IR         1 TEMP              0 ****  ****    0 ROOT
