@<TRIPOS>MOLECULE
6IR
   56    58     1     0     0
SMALL
abcg2


@<TRIPOS>ATOM
      1 C1           8.3760    -1.8580     0.4180 c          1 6IR       0.613000
      2 N1           9.1780    -0.8760    -0.0640 ns         1 6IR      -0.524900
      3 O1           8.5740    -3.0610     0.3440 o          1 6IR      -0.575000
      4 S1           6.5080     0.6700    -1.4500 ss         1 6IR      -0.410000
      5 C2           8.6610     0.4520     0.1370 c5         1 6IR       0.103700
      6 N2           7.3110    -1.2520     1.0120 ns         1 6IR      -0.510900
      7 O2          -0.3420     0.1760     1.5390 o          1 6IR      -0.562100
      8 S2          -7.1170     0.5910     0.1340 sy         1 6IR       1.157600
      9 C3           8.2320     1.1440    -1.1620 c5         1 6IR       0.030600
     10 N3          -1.2300     1.2300    -0.2710 ns         1 6IR      -0.153000
     11 O3          -7.4790     0.3220     1.5160 o          1 6IR      -0.533500
     12 C4           7.3970     0.1870     1.0080 c5         1 6IR       0.096700
     13 N4          -7.4730    -0.7670    -0.7250 n7         1 6IR      -0.864300
     14 O4          -7.7410     1.6950    -0.5780 o          1 6IR      -0.533500
     15 C5           6.1930     0.8590     0.3370 c5         1 6IR       0.073300
     16 N5          -7.1250    -4.4540    -0.5640 n8         1 6IR      -0.998200
     17 C6           4.8430     0.3150     0.7660 c3         1 6IR      -0.058400
     18 C7           3.6630     1.0390     0.1300 c3         1 6IR      -0.079400
     19 C8           2.3270     0.5430     0.6670 c3         1 6IR      -0.065400
     20 C9           1.1590     1.2540     0.0030 c3         1 6IR      -0.159400
     21 C10         -0.1930     0.8170     0.5180 c          1 6IR       0.609100
     22 C11         -2.5960     1.0550    -0.1000 ca         1 6IR       0.041000
     23 C12         -3.4250     1.5810    -1.0990 ca         1 6IR      -0.180000
     24 C13         -4.7960     1.4600    -1.0230 ca         1 6IR       0.015500
     25 C14         -3.1800     0.4000     0.9880 ca         1 6IR      -0.180000
     26 C15         -4.5590     0.2810     1.0620 ca         1 6IR       0.015500
     27 C16         -5.3660     0.8050     0.0640 ca         1 6IR      -0.350500
     28 C27         -6.9480    -2.0500    -0.2690 c3         1 6IR       0.194800
     29 C28         -7.6410    -3.1760    -1.0220 c3         1 6IR       0.147800
     30 H1           9.9480    -1.0720    -0.6810 hn         1 6IR       0.343500
     31 H2           9.3870     1.0800     0.6570 h1         1 6IR       0.071700
     32 H3           6.7630    -1.7480     1.6950 hn         1 6IR       0.337500
     33 H4           8.8520     0.8510    -2.0080 h1         1 6IR       0.078200
     34 H5           8.3010     2.2280    -1.0510 h1         1 6IR       0.078200
     35 H6          -0.9700     1.7430    -1.1000 hn         1 6IR       0.152000
     36 H7           7.5130     0.5780     2.0230 h1         1 6IR       0.063700
     37 H8          -7.3600    -0.6150    -1.7230 hn         1 6IR       0.473000
     38 H9           6.2370     1.9290     0.5670 h1         1 6IR       0.068700
     39 H10         -7.6890    -5.1990    -0.9500 hn         1 6IR       0.396500
     40 H11         -6.1920    -4.5980    -0.9310 hn         1 6IR       0.396500
     41 H13          4.7850    -0.7540     0.5410 hc         1 6IR       0.055200
     42 H14          4.7760     0.4070     1.8550 hc         1 6IR       0.055200
     43 H15          3.7550     2.1150     0.3100 hc         1 6IR       0.045700
     44 H16          3.6890     0.9080    -0.9570 hc         1 6IR       0.045700
     45 H17          2.2460    -0.5350     0.5020 hc         1 6IR       0.058200
     46 H18          2.2910     0.6950     1.7480 hc         1 6IR       0.058200
     47 H19          1.2400     2.3350     0.1620 hc         1 6IR       0.061700
     48 H20          1.1990     1.1130    -1.0810 hc         1 6IR       0.061700
     49 H21         -2.9870     2.0940    -1.9460 ha         1 6IR       0.134000
     50 H22         -5.4070     1.8810    -1.8100 ha         1 6IR       0.136500
     51 H23         -2.5810    -0.0140     1.7800 ha         1 6IR       0.134000
     52 H24         -4.9900    -0.2220     1.9170 ha         1 6IR       0.136500
     53 H25         -5.8620    -2.1160    -0.4100 h1         1 6IR       0.060200
     54 H26         -7.1520    -2.1560     0.7960 h1         1 6IR       0.060200
     55 H27         -7.5270    -3.0120    -2.1030 h1         1 6IR       0.038200
     56 H28         -8.7100    -3.1310    -0.8090 h1         1 6IR       0.038200
@<TRIPOS>BOND
     1     1     2 1   
     2     1     3 2   
     3     1     6 1   
     4     2     5 1   
     5     2    30 1   
     6     4     9 1   
     7     4    15 1   
     8     5     9 1   
     9     5    12 1   
    10     5    31 1   
    11     6    12 1   
    12     6    32 1   
    13     7    21 2   
    14     8    11 2   
    15     8    13 1   
    16     8    14 2   
    17     8    27 1   
    18     9    33 1   
    19     9    34 1   
    20    10    21 1   
    21    10    22 1   
    22    10    35 1   
    23    12    15 1   
    24    12    36 1   
    25    13    28 1   
    26    13    37 1   
    27    15    17 1   
    28    15    38 1   
    29    16    29 1   
    30    16    39 1   
    31    16    40 1   
    32    17    18 1   
    33    17    41 1   
    34    17    42 1   
    35    18    19 1   
    36    18    43 1   
    37    18    44 1   
    38    19    20 1   
    39    19    45 1   
    40    19    46 1   
    41    20    21 1   
    42    20    47 1   
    43    20    48 1   
    44    22    23 ar  
    45    22    25 ar  
    46    23    24 ar  
    47    23    49 1   
    48    24    27 ar  
    49    24    50 1   
    50    25    26 ar  
    51    25    51 1   
    52    26    27 ar  
    53    26    52 1   
    54    28    29 1   
    55    28    53 1   
    56    28    54 1   
    57    29    55 1   
    58    29    56 1   
@<TRIPOS>SUBSTRUCTURE
     1 6IR         1 TEMP              0 ****  ****    0 ROOT
