@<TRIPOS>MOLECULE
6IT
   44    47     1     0     0
SMALL
No Charge or Current Charge


@<TRIPOS>ATOM
      1 C1          13.9010     0.0190    -9.5800 ca         1 6IT      -0.277000
      2 C2          13.5470    -1.1150   -10.3270 ca         1 6IT       0.138900
      3 C3          13.0300     0.4200    -8.5630 ca         1 6IT       0.390900
      4 C7          14.5620     9.7300    -8.0090 cc         1 6IT       0.008000
      5 C8          14.2680     8.4780    -8.4930 cd         1 6IT      -0.182000
      6 C9          13.6130     7.5420    -7.6120 cd         1 6IT       0.586900
      7 C10         11.3500     3.0450    -7.6600 c6         1 6IT      -0.089900
      8 C11         13.2190     3.1470    -5.9160 c6         1 6IT      -0.089900
      9 C12         11.9630     4.2770    -8.3810 c6         1 6IT      -0.092900
     10 C13         13.8170     4.3860    -6.6390 c6         1 6IT      -0.092900
     11 C14         12.4110     2.2260    -6.8710 c6         1 6IT       0.243500
     12 C15         12.7210     5.1900    -7.3850 c6         1 6IT       0.235500
     13 N18         11.8930    -0.2520    -8.3030 nb         1 6IT      -0.237000
     14 N23         13.3330     1.5360    -7.7930 nu         1 6IT      -0.926100
     15 C4          14.1910     9.9970    -6.6660 cc         1 6IT      -0.161000
     16 C5          11.6230    -1.3310    -9.0760 ca         1 6IT       0.082300
     17 C6          13.3330     9.5580    -4.6770 cc         1 6IT       0.394800
     18 N17         12.4100    -1.7950   -10.0770 nb         1 6IT      -0.174000
     19 N19         14.3320    11.0800    -5.9210 nd         1 6IT      -0.064000
     20 N20         13.7920    10.8060    -4.6660 nd         1 6IT      -0.351700
     21 N21         13.2470     7.7580    -6.3450 nc         1 6IT      -0.559800
     22 N22         13.5750     9.0390    -5.9220 na         1 6IT       0.140000
     23 N24         13.3370     6.3070    -8.1250 nu         1 6IT      -0.933100
     24 F25         10.5420    -3.0570    -7.8270 f          1 6IT      -0.099333
     25 F26          9.3420    -1.3100    -8.3130 f          1 6IT      -0.099333
     26 F27          9.8410    -2.7460    -9.8610 f          1 6IT      -0.099333
     27 Cl28        12.5640     8.7240    -3.3580 cl         1 6IT      -0.018300
     28 H1          14.8180     0.5610    -9.7890 ha         1 6IT       0.132000
     29 H2          14.1780    -1.4860   -11.1330 h4         1 6IT       0.031100
     30 H4          14.5230     8.2050    -9.5090 ha         1 6IT       0.132000
     31 H5          10.5750     3.3870    -6.9600 hc         1 6IT       0.063700
     32 H6          10.8360     2.4020    -8.3870 hc         1 6IT       0.063700
     33 H7          12.5550     3.4890    -5.1100 hc         1 6IT       0.063700
     34 H8          14.0170     2.5730    -5.4250 hc         1 6IT       0.063700
     35 H9          12.6400     3.9380    -9.1770 hc         1 6IT       0.049200
     36 H10         11.1630     4.8470    -8.8730 hc         1 6IT       0.049200
     37 H11         14.5970     4.0690    -7.3450 hc         1 6IT       0.049200
     38 H12         14.3150     5.0310    -5.9020 hc         1 6IT       0.049200
     39 H13         11.8880     1.4820    -6.2470 h1         1 6IT       0.086700
     40 H14         11.9900     5.5580    -6.6470 h1         1 6IT       0.084700
     41 H15         14.2070     2.0030    -8.0300 hn         1 6IT       0.496000
     42 H16         13.6350     6.1640    -9.0870 hn         1 6IT       0.494000
     43 C16         10.3350    -2.1100    -8.7710 c3         1 6IT       0.267700
     44 H3          15.0540    10.4880    -8.6120 ha         1 6IT       0.154000
@<TRIPOS>BOND
     1     1     2 ar  
     2     1     3 ar  
     3     1    28 1   
     4     2    18 ar  
     5     2    29 1   
     6     3    13 ar  
     7     3    14 1   
     8     4     5 2   
     9     4    15 1   
    10     4    44 1   
    11     5     6 1   
    12     5    30 1   
    13     6    21 2   
    14     6    23 1   
    15     7     9 1   
    16     7    11 1   
    17     7    31 1   
    18     7    32 1   
    19     8    10 1   
    20     8    11 1   
    21     8    33 1   
    22     8    34 1   
    23     9    12 1   
    24     9    35 1   
    25     9    36 1   
    26    10    12 1   
    27    10    37 1   
    28    10    38 1   
    29    11    14 1   
    30    11    39 1   
    31    12    23 1   
    32    12    40 1   
    33    13    16 ar  
    34    14    41 1   
    35    15    19 2   
    36    15    22 1   
    37    16    18 ar  
    38    16    43 1   
    39    17    20 2   
    40    17    22 1   
    41    17    27 1   
    42    19    20 1   
    43    21    22 1   
    44    23    42 1   
    45    24    43 1   
    46    25    43 1   
    47    26    43 1   
@<TRIPOS>SUBSTRUCTURE
     1 6IT         1 TEMP              0 ****  ****    0 ROOT
