@<TRIPOS>MOLECULE
6IT
   44    47     1     0     0
SMALL
abcg2


@<TRIPOS>ATOM
      1 C1          13.9990    -0.0690    -9.4870 ca         1 6IT      -0.277000
      2 C2          13.6510    -1.2210   -10.1330 ca         1 6IT       0.138900
      3 C3          13.0670     0.4750    -8.5640 ca         1 6IT       0.390900
      4 C7          14.4480     9.7270    -7.9650 cc         1 6IT       0.008000
      5 C8          14.1200     8.5200    -8.4720 cd         1 6IT      -0.182000
      6 C9          13.5310     7.5020    -7.6240 cd         1 6IT       0.586900
      7 C10         11.3380     3.0520    -7.6910 c6         1 6IT      -0.089900
      8 C11         13.2200     3.1730    -6.0190 c6         1 6IT      -0.089900
      9 C12         11.9020     4.2730    -8.4150 c6         1 6IT      -0.092900
     10 C13         13.7810     4.4020    -6.7380 c6         1 6IT      -0.092900
     11 C14         12.4240     2.2570    -6.9530 c6         1 6IT       0.243500
     12 C15         12.6710     5.1790    -7.4550 c6         1 6IT       0.235500
     13 N18         11.8920    -0.1500    -8.3590 nb         1 6IT      -0.237000
     14 N23         13.3400     1.5970    -7.8840 nu         1 6IT      -0.926100
     15 C4          14.1910     9.9480    -6.5880 cc         1 6IT      -0.161000
     16 C5          11.6820    -1.2590    -9.0530 ca         1 6IT       0.082300
     17 C6          13.5030     9.3860    -4.6140 cc         1 6IT       0.394800
     18 N17         12.4680    -1.8510    -9.9280 nb         1 6IT      -0.174000
     19 N19         14.3810    10.9860    -5.7860 nd         1 6IT      -0.064000
     20 N20         13.9430    10.6230    -4.5410 nd         1 6IT      -0.351700
     21 N21         13.2940     7.6780    -6.3360 nc         1 6IT      -0.559800
     22 N22         13.6330     8.9080    -5.8790 na         1 6IT       0.140000
     23 N24         13.1940     6.3240    -8.1870 nu         1 6IT      -0.933100
     24 F25         10.2380    -2.2830    -7.4710 f          1 6IT      -0.099333
     25 F26          9.3120    -1.0730    -9.0140 f          1 6IT      -0.099333
     26 F27         10.1270    -3.0180    -9.5070 f          1 6IT      -0.099333
     27 CL28        12.8530     8.4700    -3.3400 cl         1 6IT      -0.018300
     28 H1          14.9480     0.4170    -9.6660 ha         1 6IT       0.132000
     29 H2          14.3230    -1.6800   -10.8480 h4         1 6IT       0.031100
     30 H4          14.2840     8.2840    -9.5150 ha         1 6IT       0.132000
     31 H5          10.5980     3.3720    -6.9510 hc         1 6IT       0.063700
     32 H6          10.8240     2.3980    -8.3960 hc         1 6IT       0.063700
     33 H7          12.5430     3.5000    -5.2260 hc         1 6IT       0.063700
     34 H8          14.0240     2.6090    -5.5430 hc         1 6IT       0.063700
     35 H9          12.5770     3.9510    -9.2160 hc         1 6IT       0.049200
     36 H10         11.0930     4.8380    -8.8830 hc         1 6IT       0.049200
     37 H11         14.5330     4.1140    -7.4800 hc         1 6IT       0.049200
     38 H12         14.2830     5.0530    -6.0210 hc         1 6IT       0.049200
     39 H13         11.9470     1.4730    -6.3640 h1         1 6IT       0.086700
     40 H14         11.9770     5.5660    -6.7040 h1         1 6IT       0.084700
     41 H15         14.2210     2.0410    -8.0840 hn         1 6IT       0.496000
     42 H16         13.4840     6.1720    -9.1400 hn         1 6IT       0.494000
     43 C16         10.3360    -1.9190    -8.7690 c3         1 6IT       0.267700
     44 H3          14.8880    10.5120    -8.5630 ha         1 6IT       0.154000
@<TRIPOS>BOND
     1     1     2 ar  
     2     1     3 ar  
     3     1    28 1   
     4     2    18 ar  
     5     2    29 1   
     6     3    13 ar  
     7     3    14 1   
     8     4     5 2   
     9     4    15 1   
    10     4    44 1   
    11     5     6 1   
    12     5    30 1   
    13     6    21 2   
    14     6    23 1   
    15     7     9 1   
    16     7    11 1   
    17     7    31 1   
    18     7    32 1   
    19     8    10 1   
    20     8    11 1   
    21     8    33 1   
    22     8    34 1   
    23     9    12 1   
    24     9    35 1   
    25     9    36 1   
    26    10    12 1   
    27    10    37 1   
    28    10    38 1   
    29    11    14 1   
    30    11    39 1   
    31    12    23 1   
    32    12    40 1   
    33    13    16 ar  
    34    14    41 1   
    35    15    19 2   
    36    15    22 1   
    37    16    18 ar  
    38    16    43 1   
    39    17    20 2   
    40    17    22 1   
    41    17    27 1   
    42    19    20 1   
    43    21    22 1   
    44    23    42 1   
    45    24    43 1   
    46    25    43 1   
    47    26    43 1   
@<TRIPOS>SUBSTRUCTURE
     1 6IT         1 TEMP              0 ****  ****    0 ROOT
