@<TRIPOS>MOLECULE
6IU
   24    23     1     0     0
SMALL
bcc


@<TRIPOS>ATOM
      1 OAL        -50.1300    -1.4500   -16.9290 o          1 6IU      -0.194000
      2 N          -49.2740    -2.2990   -16.8730 no         1 6IU       0.257300
      3 OAM        -48.2570    -2.2110   -16.2340 o          1 6IU      -0.194000
      4 CA         -49.4940    -3.5220   -17.6780 c3         1 6IU      -0.187700
      5 C          -49.2480    -3.1810   -19.1430 c          1 6IU       0.685100
      6 O          -48.5390    -2.2450   -19.4610 o          1 6IU      -0.556100
      7 NAG        -49.8500    -4.0130   -19.9970 ns         1 6IU      -0.562900
      8 CAF        -49.5400    -4.0290   -21.4100 c3         1 6IU       0.084000
      9 CAE        -48.1750    -4.6460   -21.7080 c3         1 6IU       0.068000
     10 NAD        -48.0490    -5.9910   -21.2030 ns         1 6IU      -0.579900
     11 CAB        -47.5370    -6.2970   -19.9960 c          1 6IU       0.663100
     12 OAC        -47.0960    -5.4580   -19.2210 o          1 6IU      -0.605100
     13 CAA        -47.5370    -7.7660   -19.6480 c3         1 6IU      -0.182100
     14 H1         -50.5090    -3.8670   -17.4850 h1         1 6IU       0.111200
     15 H2         -48.7830    -4.2830   -17.3610 h1         1 6IU       0.111200
     16 H3         -50.3980    -4.7760   -19.6320 hn         1 6IU       0.313500
     17 H4         -49.5760    -3.0160   -21.8110 h1         1 6IU       0.061700
     18 H5         -50.3250    -4.5990   -21.9070 h1         1 6IU       0.061700
     19 H6         -48.0280    -4.6640   -22.7890 h1         1 6IU       0.074200
     20 H7         -47.3820    -4.0310   -21.2860 h1         1 6IU       0.074200
     21 H8         -48.4190    -6.7360   -21.7700 hn         1 6IU       0.310500
     22 H9         -48.2130    -7.9330   -18.8090 hc         1 6IU       0.061367
     23 H10        -47.8440    -8.4120   -20.4680 hc         1 6IU       0.061367
     24 H11        -46.5400    -8.0620   -19.3240 hc         1 6IU       0.061367
@<TRIPOS>BOND
     1     1     2 1   
     2     2     3 1   
     3     2     4 1   
     4     4     5 1   
     5     4    14 1   
     6     4    15 1   
     7     5     6 2   
     8     5     7 1   
     9     7     8 1   
    10     7    16 1   
    11     8     9 1   
    12     8    17 1   
    13     8    18 1   
    14     9    10 1   
    15     9    19 1   
    16     9    20 1   
    17    10    11 1   
    18    10    21 1   
    19    11    12 2   
    20    11    13 1   
    21    13    22 1   
    22    13    23 1   
    23    13    24 1   
@<TRIPOS>SUBSTRUCTURE
     1 6IU         1 TEMP              0 ****  ****    0 ROOT
