@<TRIPOS>MOLECULE
6IU
   24    23     1     0     0
SMALL
No Charge or Current Charge


@<TRIPOS>ATOM
      1 OAL        -49.8320    -1.1890   -16.6090 o          1 6IU      -0.384000
      2 N          -49.0790    -2.1470   -16.8170 no         1 6IU       0.608000
      3 OAM        -48.0070    -2.3340   -16.2310 o          1 6IU      -0.384000
      4 CA         -49.6280    -3.2890   -17.6360 c3         1 6IU      -0.158400
      5 C          -49.3060    -3.0980   -19.1000 c          1 6IU       0.618100
      6 O          -48.6080    -2.1910   -19.5330 o          1 6IU      -0.556100
      7 NAG        -49.8780    -4.0400   -19.9270 ns         1 6IU      -0.495900
      8 CAF        -49.6370    -4.1340   -21.3730 c3         1 6IU       0.084000
      9 CAE        -48.2310    -4.6780   -21.7210 c3         1 6IU       0.068000
     10 NAD        -48.0110    -6.0520   -21.2390 ns         1 6IU      -0.512900
     11 CAB        -47.4930    -6.3880   -20.0080 c          1 6IU       0.596100
     12 OAC        -47.1360    -5.5540   -19.1890 o          1 6IU      -0.605100
     13 CAA        -47.3970    -7.8840   -19.7450 c3         1 6IU      -0.182100
     14 H1         -50.7110    -3.3070   -17.4860 h1         1 6IU       0.111200
     15 H2         -49.1670    -4.2110   -17.2700 h1         1 6IU       0.111200
     16 H3         -50.4410    -4.7570   -19.4850 hn         1 6IU       0.313500
     17 H4         -49.7570    -3.1370   -21.8180 h1         1 6IU       0.061700
     18 H5         -50.3980    -4.7900   -21.8150 h1         1 6IU       0.061700
     19 H6         -48.1090    -4.6700   -22.8120 h1         1 6IU       0.074200
     20 H7         -47.4640    -4.0150   -21.3000 h1         1 6IU       0.074200
     21 H8         -48.2720    -6.8230   -21.8440 hn         1 6IU       0.310500
     22 H9         -48.3860    -8.3350   -19.8810 hc         1 6IU       0.061367
     23 H10        -46.8160    -8.3510   -20.5480 hc         1 6IU       0.061367
     24 H11        -46.9800    -8.1130   -18.7580 hc         1 6IU       0.061367
@<TRIPOS>BOND
     1     1     2 1   
     2     2     3 1   
     3     2     4 1   
     4     4     5 1   
     5     4    14 1   
     6     4    15 1   
     7     5     6 2   
     8     5     7 1   
     9     7     8 1   
    10     7    16 1   
    11     8     9 1   
    12     8    17 1   
    13     8    18 1   
    14     9    10 1   
    15     9    19 1   
    16     9    20 1   
    17    10    11 1   
    18    10    21 1   
    19    11    12 2   
    20    11    13 1   
    21    13    22 1   
    22    13    23 1   
    23    13    24 1   
@<TRIPOS>SUBSTRUCTURE
     1 6IU         1 TEMP              0 ****  ****    0 ROOT
