@<TRIPOS>MOLECULE
6IV
   51    54     1     0     0
SMALL
abcg2


@<TRIPOS>ATOM
      1 C13          0.1730    10.3660    82.8910 c3         1 6IV       0.166600
      2 C15          0.2830     8.3590    84.3850 cc         1 6IV       0.217300
      3 C20         -0.7270     4.9530    84.5040 ca         1 6IV       0.019800
      4 C21         -1.5890     2.9700    85.4450 ca         1 6IV      -0.245500
      5 C22         -1.3630     4.3220    85.5750 ca         1 6IV       0.019000
      6 C24         -0.5790     2.8770    83.2730 ca         1 6IV      -0.030000
      7 C01         -2.6550     8.8760    78.8370 c6         1 6IV       0.126300
      8 C02         -3.0880     9.6910    80.0700 c6         1 6IV       0.150300
      9 C04         -1.2530     9.1010    81.4510 c6         1 6IV       0.367300
     10 C05         -1.1690     7.8220    80.5900 c6         1 6IV       0.103300
     11 C06         -1.3250     8.1650    79.1180 c6         1 6IV       0.180300
     12 C14          0.9600     9.6190    83.9690 c3         1 6IV      -0.120700
     13 C16          0.4620     7.0790    83.9280 cd         1 6IV      -0.186000
     14 C23         -0.3460     4.2430    83.3630 ca         1 6IV      -0.097000
     15 C25         -1.2080     2.2360    84.3290 ca         1 6IV      -0.099600
     16 C27         -1.5420     0.7930    84.4400 c          1 6IV       0.598600
     17 N17         -0.7410     8.3350    85.2910 nc         1 6IV      -0.341000
     18 N18         -1.1910     7.1260    85.4180 nd         1 6IV      -0.182800
     19 N19         -0.4680     6.3380    84.5880 na         1 6IV       0.182000
     20 N28         -2.1390     0.5760    85.6710 ns         1 6IV      -0.594300
     21 O03         -1.9340    10.1560    80.7810 os         1 6IV      -0.465000
     22 O07         -1.1410     7.0220    78.2930 oh         1 6IV      -0.642000
     23 O08         -2.4420     9.6750    77.6690 oh         1 6IV      -0.708000
     24 O11         -2.2040     6.8920    80.9130 oh         1 6IV      -0.731000
     25 O12          0.0370     9.5420    81.7260 os         1 6IV      -0.461000
     26 O29         -1.3390    -0.0720    83.6170 o          1 6IV      -0.471000
     27 S26         -2.3550     1.9210    86.6430 sy         1 6IV       1.206300
     28 H131         0.7070    11.2720    82.6020 h1         1 6IV       0.063700
     29 H132        -0.8130    10.6520    83.2620 h1         1 6IV       0.063700
     30 H221        -1.6490     4.8730    86.4570 ha         1 6IV       0.166000
     31 H241        -0.2820     2.3250    82.3920 ha         1 6IV       0.150000
     32 H011        -3.4250     8.1270    78.6320 h1         1 6IV       0.047700
     33 H021        -3.6660     9.0300    80.7240 h1         1 6IV       0.065700
     34 H041        -1.7920     8.8670    82.3790 h2         1 6IV       0.040700
     35 H051        -0.1910     7.3680    80.7550 h1         1 6IV       0.063700
     36 H061        -0.5270     8.8620    78.8550 h1         1 6IV       0.113700
     37 H141         1.9550     9.3890    83.5860 hc         1 6IV       0.069700
     38 H142         1.0780    10.2790    84.8310 hc         1 6IV       0.069700
     39 H161         1.1600     6.6600    83.2270 h4         1 6IV       0.175000
     40 H231         0.1230     4.7600    82.5380 ha         1 6IV       0.132000
     41 H1          -2.4830    -0.3330    85.9570 hn         1 6IV       0.362500
     42 H071        -1.7230     6.3270    78.6300 ho         1 6IV       0.445000
     43 H081        -3.2920     9.8450    77.2450 ho         1 6IV       0.500000
     44 H101        -5.0330    12.1740    80.7280 ho         1 6IV       0.505000
     45 H111        -2.0190     6.4990    81.7750 ho         1 6IV       0.508000
     46 C09         -3.9500    10.8850    79.7320 c3         1 6IV       0.166600
     47 O10         -4.5420    11.3710    80.9370 oh         1 6IV      -0.719000
     48 O30         -3.7570     2.2070    86.7940 o          1 6IV      -0.511500
     49 O31         -1.5630     1.8110    87.8400 o          1 6IV      -0.511500
     50 H091        -3.3370    11.6570    79.2590 h1         1 6IV       0.035700
     51 H092        -4.7240    10.5730    79.0220 h1         1 6IV       0.035700
@<TRIPOS>BOND
     1     1    12 1   
     2     1    25 1   
     3     1    28 1   
     4     1    29 1   
     5     2    12 1   
     6     2    13 2   
     7     2    17 1   
     8     3     5 ar  
     9     3    14 ar  
    10     3    19 1   
    11     4     5 ar  
    12     4    15 ar  
    13     4    27 1   
    14     5    30 1   
    15     6    14 ar  
    16     6    15 ar  
    17     6    31 1   
    18     7     8 1   
    19     7    11 1   
    20     7    23 1   
    21     7    32 1   
    22     8    21 1   
    23     8    33 1   
    24     8    46 1   
    25     9    10 1   
    26     9    21 1   
    27     9    25 1   
    28     9    34 1   
    29    10    11 1   
    30    10    24 1   
    31    10    35 1   
    32    11    22 1   
    33    11    36 1   
    34    12    37 1   
    35    12    38 1   
    36    13    19 1   
    37    13    39 1   
    38    14    40 1   
    39    15    16 1   
    40    16    20 1   
    41    16    26 2   
    42    17    18 2   
    43    18    19 1   
    44    20    27 1   
    45    20    41 1   
    46    22    42 1   
    47    23    43 1   
    48    24    45 1   
    49    27    48 2   
    50    27    49 2   
    51    44    47 1   
    52    46    47 1   
    53    46    50 1   
    54    46    51 1   
@<TRIPOS>SUBSTRUCTURE
     1 6IV         1 TEMP              0 ****  ****    0 ROOT
