@<TRIPOS>MOLECULE
6IV
   51    54     1     0     0
SMALL
No Charge or Current Charge


@<TRIPOS>ATOM
      1 C13          0.4930    10.2660    82.6370 c3         1 6IV       0.166600
      2 C15          0.0850     8.1930    84.1020 cc         1 6IV       0.217300
      3 C20         -1.3390     5.1100    84.6670 ca         1 6IV       0.019800
      4 C21         -1.7140     3.1170    85.9750 ca         1 6IV      -0.245500
      5 C22         -1.4130     4.4870    85.9330 ca         1 6IV       0.019000
      6 C24         -1.8740     2.9760    83.5570 ca         1 6IV      -0.030000
      7 C01         -2.5720     9.4020    78.7130 c6         1 6IV       0.126300
      8 C02         -2.9510     9.1240    80.2130 c6         1 6IV       0.150300
      9 C04         -0.6370     8.8190    80.9720 c6         1 6IV       0.367300
     10 C05         -0.3840     8.2900    79.5030 c6         1 6IV       0.103300
     11 C06         -1.0190     9.3050    78.5120 c6         1 6IV       0.180300
     12 C14          1.0790     9.1990    83.5930 c3         1 6IV      -0.120700
     13 C16          0.0790     6.8460    83.8940 cd         1 6IV      -0.186000
     14 C23         -1.5730     4.3540    83.4890 ca         1 6IV      -0.097000
     15 C25         -1.9410     2.3630    84.8180 ca         1 6IV      -0.099600
     16 C27         -2.2500     0.9100    85.1140 c          1 6IV       0.598600
     17 N17         -0.9600     8.5710    84.9090 nc         1 6IV      -0.341000
     18 N18         -1.6540     7.5040    85.2270 nd         1 6IV      -0.182800
     19 N19         -1.0440     6.4700    84.5830 na         1 6IV       0.182000
     20 N28         -2.2120     0.7140    86.4620 ns         1 6IV      -0.594300
     21 O03         -1.8860     9.5540    81.0960 os         1 6IV      -0.465000
     22 O07         -0.7130     8.9530    77.1490 oh         1 6IV      -0.642000
     23 O08         -3.0380    10.6800    78.2230 oh         1 6IV      -0.708000
     24 O11         -0.9490     6.9720    79.2550 oh         1 6IV      -0.731000
     25 O12          0.4190     9.7450    81.2920 os         1 6IV      -0.461000
     26 O29         -2.4990     0.0410    84.2950 o          1 6IV      -0.471000
     27 S26         -1.8760     2.0560    87.3840 sy         1 6IV       1.206300
     28 H131         1.1660    11.1330    82.6470 h1         1 6IV       0.063700
     29 H132        -0.4860    10.6130    82.9970 h1         1 6IV       0.063700
     30 H221        -1.2400     5.0530    86.8480 ha         1 6IV       0.166000
     31 H241        -2.0530     2.4020    82.6490 ha         1 6IV       0.150000
     32 H011        -3.0440     8.6010    78.1250 h1         1 6IV       0.047700
     33 H021        -3.0800     8.0390    80.3410 h1         1 6IV       0.065700
     34 H041        -0.6270     7.9680    81.6640 h2         1 6IV       0.040700
     35 H051         0.7030     8.2690    79.3300 h1         1 6IV       0.063700
     36 H061        -0.5880    10.2920    78.7480 h1         1 6IV       0.113700
     37 H141         1.9140     8.6890    83.0980 hc         1 6IV       0.069700
     38 H142         1.5130     9.7190    84.4550 hc         1 6IV       0.069700
     39 H161         0.7360     6.1810    83.3490 h4         1 6IV       0.175000
     40 H231        -1.5250     4.8380    82.5160 ha         1 6IV       0.132000
     41 H1          -2.4230    -0.1490    86.9300 hn         1 6IV       0.362500
     42 H071        -0.7820     7.9720    77.1220 ho         1 6IV       0.445000
     43 H081        -2.7190    10.7520    77.2920 ho         1 6IV       0.500000
     44 H101        -5.4840     9.9690    82.2240 ho         1 6IV       0.505000
     45 H111        -0.3460     6.3080    79.6660 ho         1 6IV       0.508000
     46 C09         -4.3000     9.7830    80.6610 c3         1 6IV       0.166600
     47 O10         -4.6840     9.4350    82.0070 oh         1 6IV      -0.719000
     48 O30         -3.0820     2.3900    88.1480 o          1 6IV      -0.511500
     49 O31         -0.5730     1.8470    88.0250 o          1 6IV      -0.511500
     50 H091        -4.1990    10.8730    80.5720 h1         1 6IV       0.035700
     51 H092        -5.0820     9.4680    79.9560 h1         1 6IV       0.035700
@<TRIPOS>BOND
     1     1    12 1   
     2     1    25 1   
     3     1    28 1   
     4     1    29 1   
     5     2    12 1   
     6     2    13 2   
     7     2    17 1   
     8     3     5 ar  
     9     3    14 ar  
    10     3    19 1   
    11     4     5 ar  
    12     4    15 ar  
    13     4    27 1   
    14     5    30 1   
    15     6    14 ar  
    16     6    15 ar  
    17     6    31 1   
    18     7     8 1   
    19     7    11 1   
    20     7    23 1   
    21     7    32 1   
    22     8    21 1   
    23     8    33 1   
    24     8    46 1   
    25     9    10 1   
    26     9    21 1   
    27     9    25 1   
    28     9    34 1   
    29    10    11 1   
    30    10    24 1   
    31    10    35 1   
    32    11    22 1   
    33    11    36 1   
    34    12    37 1   
    35    12    38 1   
    36    13    19 1   
    37    13    39 1   
    38    14    40 1   
    39    15    16 1   
    40    16    20 1   
    41    16    26 2   
    42    17    18 2   
    43    18    19 1   
    44    20    27 1   
    45    20    41 1   
    46    22    42 1   
    47    23    43 1   
    48    24    45 1   
    49    27    48 2   
    50    27    49 2   
    51    44    47 1   
    52    46    47 1   
    53    46    50 1   
    54    46    51 1   
@<TRIPOS>SUBSTRUCTURE
     1 6IV         1 TEMP              0 ****  ****    0 ROOT
