@<TRIPOS>MOLECULE
6IW
   20    20     1     0     0
SMALL
abcg2


@<TRIPOS>ATOM
      1 C10          0.5180   -37.0200    -3.1410 c          1 6IW       0.727000
      2 C05          2.0550   -37.1020    -3.1490 c5         1 6IW       0.041500
      3 C06          2.6400   -36.8470    -1.7490 c5         1 6IW      -0.092400
      4 C07          4.0230   -36.2080    -1.9950 c5         1 6IW       0.155300
      5 C08          4.1280   -36.2000    -3.5140 c5         1 6IW       0.158800
      6 N04          2.7560   -36.1340    -3.9730 n3         1 6IW      -0.668600
      7 O01          4.1180   -34.8800    -1.5200 oh         1 6IW      -0.656000
      8 O02         -0.0430   -37.9740    -2.5620 o          1 6IW      -0.725000
      9 O03         -0.0310   -36.0330    -3.6640 o          1 6IW      -0.725000
     10 H051         2.3360   -38.1290    -3.4550 h1         1 6IW       0.003700
     11 H061         2.0140   -36.1490    -1.1870 hc         1 6IW       0.046700
     12 H062         2.7000   -37.7670    -1.1680 hc         1 6IW       0.046700
     13 H071         4.8220   -36.8220    -1.5630 h1         1 6IW       0.003700
     14 H082         4.6210   -37.1330    -3.8430 h1         1 6IW       0.017700
     15 H081         4.7280   -35.3680    -3.8930 h1         1 6IW       0.017700
     16 H093         1.5910   -36.3050    -5.6960 h1         1 6IW       0.017367
     17 H091         3.1930   -35.6160    -5.9470 h1         1 6IW       0.017367
     18 H092         3.0170   -37.3580    -5.6920 h1         1 6IW       0.017367
     19 H011         3.9750   -34.8930    -0.5690 ho         1 6IW       0.425000
     20 C09          2.6330   -36.3690    -5.3890 c3         1 6IW       0.170100
@<TRIPOS>BOND
     1     1     2 1   
     2     1     8 1   
     3     1     9 1   
     4     2     3 1   
     5     2     6 1   
     6     2    10 1   
     7     3     4 1   
     8     3    11 1   
     9     3    12 1   
    10     4     5 1   
    11     4     7 1   
    12     4    13 1   
    13     5     6 1   
    14     5    14 1   
    15     5    15 1   
    16     6    20 1   
    17     7    19 1   
    18    16    20 1   
    19    17    20 1   
    20    18    20 1   
@<TRIPOS>SUBSTRUCTURE
     1 6IW         1 TEMP              0 ****  ****    0 ROOT
