@<TRIPOS>MOLECULE
6IW
   20    20     1     0     0
SMALL
No Charge or Current Charge


@<TRIPOS>ATOM
      1 C10          0.4930   -37.2270    -3.1730 c          1 6IW       0.727000
      2 C05          2.0760   -37.1020    -3.0780 c5         1 6IW       0.041500
      3 C06          2.5170   -36.4310    -1.7450 c5         1 6IW      -0.092400
      4 C07          4.0440   -36.2340    -1.9830 c5         1 6IW       0.155300
      5 C08          4.1550   -36.1120    -3.5490 c5         1 6IW       0.158800
      6 N04          2.7520   -36.1740    -4.0380 n3         1 6IW      -0.668600
      7 O01          4.5480   -35.0920    -1.2830 oh         1 6IW      -0.656000
      8 O02          0.0170   -38.2330    -3.6870 o          1 6IW      -0.725000
      9 O03         -0.2310   -36.3530    -2.7070 o          1 6IW      -0.725000
     10 H051         2.5010   -38.1130    -3.1570 h1         1 6IW       0.003700
     11 H061         2.0110   -35.4710    -1.5900 hc         1 6IW       0.046700
     12 H062         2.3090   -37.0590    -0.8720 hc         1 6IW       0.046700
     13 H071         4.5880   -37.1300    -1.6550 h1         1 6IW       0.003700
     14 H082         4.7450   -36.9500    -3.9470 h1         1 6IW       0.017700
     15 H081         4.6470   -35.1810    -3.8640 h1         1 6IW       0.017700
     16 H093         1.5340   -36.4730    -5.7560 h1         1 6IW       0.017367
     17 H091         3.1250   -35.7510    -6.0870 h1         1 6IW       0.017367
     18 H092         2.9990   -37.4850    -5.6970 h1         1 6IW       0.017367
     19 H011         4.3690   -35.2460    -0.3300 ho         1 6IW       0.425000
     20 C09          2.5940   -36.4890    -5.4710 c3         1 6IW       0.170100
@<TRIPOS>BOND
     1     1     2 1   
     2     1     8 1   
     3     1     9 1   
     4     2     3 1   
     5     2     6 1   
     6     2    10 1   
     7     3     4 1   
     8     3    11 1   
     9     3    12 1   
    10     4     5 1   
    11     4     7 1   
    12     4    13 1   
    13     5     6 1   
    14     5    14 1   
    15     5    15 1   
    16     6    20 1   
    17     7    19 1   
    18    16    20 1   
    19    17    20 1   
    20    18    20 1   
@<TRIPOS>SUBSTRUCTURE
     1 6IW         1 TEMP              0 ****  ****    0 ROOT
