@<TRIPOS>MOLECULE
6IX
   97    99     1     0     0
SMALL
abcg2


@<TRIPOS>ATOM
      1 C13        162.2330   168.8040   154.3130 c          1 6IX       0.605100
      2 C15        162.1170   168.7980   156.7690 c3         1 6IX       0.024700
      3 C20        164.8200   172.2900   157.0330 c3         1 6IX      -0.104100
      4 C21        162.8050   173.4120   156.0920 c3         1 6IX      -0.104100
      5 C24        161.3710   166.3910   156.9700 ca         1 6IX      -0.091300
      6 C26        161.3480   164.0390   156.3690 ca         1 6IX      -0.125000
      7 C01        156.6020   164.7520   148.8210 c3         1 6IX      -0.083100
      8 C03        158.1350   162.9960   147.9700 c3         1 6IX      -0.083100
      9 C04        157.4190   162.9430   150.3480 c3         1 6IX      -0.083100
     10 C05        158.9760   164.7370   149.6080 ca         1 6IX      -0.065300
     11 C06        160.2290   164.6710   149.0070 ca         1 6IX      -0.118000
     12 C07        161.2970   165.4330   149.4730 ca         1 6IX      -0.101500
     13 C08        161.1490   166.2980   150.5470 ca         1 6IX      -0.092300
     14 C12        163.0430   168.3540   153.0940 c3         1 6IX       0.134500
     15 C16        162.8340   169.9690   157.4590 c          1 6IX       0.587100
     16 C18        163.3000   172.4210   157.1430 c3         1 6IX       0.137400
     17 C19        162.8980   172.9180   158.5320 c3         1 6IX      -0.104100
     18 C23        162.0500   167.5540   157.6490 c3         1 6IX      -0.031100
     19 C25        161.9720   165.1360   156.9500 ca         1 6IX      -0.095000
     20 C27        160.0950   164.1840   155.7890 ca         1 6IX       0.104100
     21 C29        159.3720   162.9820   153.8810 c3         1 6IX       0.208900
     22 C30        160.5980   162.3440   153.2810 ca         1 6IX      -0.123300
     23 C31        161.2420   161.2830   153.9140 ca         1 6IX      -0.097500
     24 C32        162.3360   160.6700   153.3190 ca         1 6IX      -0.115000
     25 C33        162.7960   161.1030   152.0810 ca         1 6IX      -0.108000
     26 C34        162.1560   162.1550   151.4430 ca         1 6IX      -0.115000
     27 C35        161.0660   162.7730   152.0440 ca         1 6IX      -0.097500
     28 C36        159.4880   165.4360   155.7800 ca         1 6IX      -0.125000
     29 C37        160.1180   166.5190   156.3710 ca         1 6IX      -0.095000
     30 C39        163.2980   169.5710   152.2080 c3         1 6IX      -0.077400
     31 C40        164.0260   170.7240   152.9080 c3         1 6IX      -0.063700
     32 C41        165.4130   170.3270   153.4070 c3         1 6IX      -0.089600
     33 C42        164.1260   171.9100   151.9550 c3         1 6IX      -0.089600
     34 C43        159.8910   166.3890   151.1400 ca         1 6IX      -0.101500
     35 C44        158.8330   165.6220   150.6820 ca         1 6IX      -0.118000
     36 N10        162.2700   167.2790   152.4810 n3         1 6IX      -0.742600
     37 N14        162.7710   168.5150   155.5110 ns         1 6IX      -0.504900
     38 O22        163.5180   169.8070   158.4580 o          1 6IX      -0.608100
     39 O28        159.4400   163.0940   155.2940 os         1 6IX      -0.363100
     40 O38        161.1630   169.3810   154.1840 o          1 6IX      -0.603100
     41 H1         161.1020   169.1220   156.5300 h1         1 6IX       0.090700
     42 H2         165.2270   171.6200   157.7880 hc         1 6IX       0.044589
     43 H3         165.1020   171.9140   156.0490 hc         1 6IX       0.044589
     44 H4         165.2860   173.2670   157.1690 hc         1 6IX       0.044589
     45 H5         163.2510   174.3920   156.2610 hc         1 6IX       0.044589
     46 H6         163.0780   173.0900   155.0840 hc         1 6IX       0.044589
     47 H7         161.7200   173.5250   156.1330 hc         1 6IX       0.044589
     48 H8         161.8290   163.0690   156.3820 ha         1 6IX       0.123500
     49 H9         156.2720   165.3570   149.6660 hc         1 6IX       0.035589
     50 H10        156.8440   165.4290   148.0000 hc         1 6IX       0.035589
     51 H11        155.7550   164.1370   148.5080 hc         1 6IX       0.035589
     52 H12        158.9500   162.3000   148.1750 hc         1 6IX       0.035589
     53 H13        157.2630   162.4030   147.6920 hc         1 6IX       0.035589
     54 H14        158.4130   163.5950   147.1010 hc         1 6IX       0.035589
     55 H15        157.1110   163.5080   151.2300 hc         1 6IX       0.035589
     56 H16        156.5860   162.2950   150.0670 hc         1 6IX       0.035589
     57 H17        158.2570   162.3060   150.6370 hc         1 6IX       0.035589
     58 H18        160.4020   164.0030   148.1750 ha         1 6IX       0.112000
     59 H19        162.2650   165.3340   148.9940 ha         1 6IX       0.122500
     60 H20        163.2510   166.6860   150.6810 h1         1 6IX       0.039700
     61 H21        162.2350   168.1140   150.5770 h1         1 6IX       0.039700
     62 H22        162.3320   166.1250   154.2340 h1         1 6IX       0.038033
     63 H23        161.8230   165.2570   152.8040 h1         1 6IX       0.038033
     64 H24        163.5340   165.6530   153.0230 h1         1 6IX       0.038033
     65 H25        164.0220   167.9670   153.4200 h1         1 6IX       0.031700
     66 H26        163.2400   172.2480   159.3170 hc         1 6IX       0.044589
     67 H27        163.3340   173.9010   158.7150 hc         1 6IX       0.044589
     68 H28        161.8140   173.0130   158.6090 hc         1 6IX       0.044589
     69 H29        163.0560   167.2590   157.9520 hc         1 6IX       0.068700
     70 H30        161.5150   167.8120   158.5660 hc         1 6IX       0.068700
     71 H31        162.9480   165.0050   157.4020 ha         1 6IX       0.115500
     72 H32        159.1890   163.9560   153.4130 h1         1 6IX       0.058200
     73 H33        158.4960   162.3620   153.6730 h1         1 6IX       0.058200
     74 H34        160.8940   160.9310   154.8760 ha         1 6IX       0.123500
     75 H35        162.8300   159.8490   153.8230 ha         1 6IX       0.111500
     76 H36        163.6490   160.6220   151.6190 ha         1 6IX       0.111000
     77 H37        162.5060   162.5050   150.4800 ha         1 6IX       0.111500
     78 H38        160.5780   163.6000   151.5420 ha         1 6IX       0.123500
     79 H39        158.5070   165.5590   155.3360 ha         1 6IX       0.123500
     80 H40        159.6070   167.4750   156.3710 ha         1 6IX       0.115500
     81 H41        162.3450   169.9390   151.8180 hc         1 6IX       0.057700
     82 H42        163.8980   169.2660   151.3450 hc         1 6IX       0.057700
     83 H43        163.4330   171.0490   153.7700 hc         1 6IX       0.050700
     84 H44        165.3760   169.5680   154.1890 hc         1 6IX       0.034200
     85 H45        166.0240   169.9380   152.5890 hc         1 6IX       0.034200
     86 H46        165.9330   171.1910   153.8240 hc         1 6IX       0.034200
     87 H47        164.6010   172.7640   152.4410 hc         1 6IX       0.034200
     88 H48        164.7200   171.6550   151.0740 hc         1 6IX       0.034200
     89 H49        163.1400   172.2280   151.6110 hc         1 6IX       0.034200
     90 H50        159.7500   167.0500   151.9860 ha         1 6IX       0.122500
     91 H51        157.8790   165.7090   151.1870 ha         1 6IX       0.112000
     92 H53        163.6650   168.0470   155.5410 hn         1 6IX       0.320500
     93 H54        162.0320   171.1410   156.0370 hn         1 6IX       0.323500
     94 N17        162.6460   171.1420   156.8380 ns         1 6IX      -0.502900
     95 C09        162.3080   167.1310   151.0430 c3         1 6IX       0.237100
     96 C11        162.5070   166.0240   153.1630 c3         1 6IX       0.150100
     97 C02        157.8000   163.8650   149.1820 c3         1 6IX       0.001300
@<TRIPOS>BOND
     1     1    14 1   
     2     1    37 1   
     3     1    40 2   
     4     2    15 1   
     5     2    18 1   
     6     2    37 1   
     7     2    41 1   
     8     3    16 1   
     9     3    42 1   
    10     3    43 1   
    11     3    44 1   
    12     4    16 1   
    13     4    45 1   
    14     4    46 1   
    15     4    47 1   
    16     5    18 1   
    17     5    19 ar  
    18     5    29 ar  
    19     6    19 ar  
    20     6    20 ar  
    21     6    48 1   
    22     7    49 1   
    23     7    50 1   
    24     7    51 1   
    25     7    97 1   
    26     8    52 1   
    27     8    53 1   
    28     8    54 1   
    29     8    97 1   
    30     9    55 1   
    31     9    56 1   
    32     9    57 1   
    33     9    97 1   
    34    10    11 ar  
    35    10    35 ar  
    36    10    97 1   
    37    11    12 ar  
    38    11    58 1   
    39    12    13 ar  
    40    12    59 1   
    41    13    34 ar  
    42    13    95 1   
    43    14    30 1   
    44    14    36 1   
    45    14    65 1   
    46    15    38 2   
    47    15    94 1   
    48    16    17 1   
    49    16    94 1   
    50    17    66 1   
    51    17    67 1   
    52    17    68 1   
    53    18    69 1   
    54    18    70 1   
    55    19    71 1   
    56    20    28 ar  
    57    20    39 1   
    58    21    22 1   
    59    21    39 1   
    60    21    72 1   
    61    21    73 1   
    62    22    23 ar  
    63    22    27 ar  
    64    23    24 ar  
    65    23    74 1   
    66    24    25 ar  
    67    24    75 1   
    68    25    26 ar  
    69    25    76 1   
    70    26    27 ar  
    71    26    77 1   
    72    27    78 1   
    73    28    29 ar  
    74    28    79 1   
    75    29    80 1   
    76    30    31 1   
    77    30    81 1   
    78    30    82 1   
    79    31    32 1   
    80    31    33 1   
    81    31    83 1   
    82    32    84 1   
    83    32    85 1   
    84    32    86 1   
    85    33    87 1   
    86    33    88 1   
    87    33    89 1   
    88    34    35 ar  
    89    34    90 1   
    90    35    91 1   
    91    36    95 1   
    92    36    96 1   
    93    37    92 1   
    94    60    95 1   
    95    61    95 1   
    96    62    96 1   
    97    63    96 1   
    98    64    96 1   
    99    93    94 1   
@<TRIPOS>SUBSTRUCTURE
     1 6IX         1 TEMP              0 ****  ****    0 ROOT
