@<TRIPOS>MOLECULE
6IX
   97    99     1     0     0
SMALL
No Charge or Current Charge


@<TRIPOS>ATOM
      1 C13        161.5060   169.3860   154.7010 c          1 6IX       0.605100
      2 C15        162.4090   168.8420   157.0190 c3         1 6IX       0.024700
      3 C20        166.1520   171.2450   158.0670 c3         1 6IX      -0.104100
      4 C21        165.4160   172.5160   156.0200 c3         1 6IX      -0.104100
      5 C24        161.7320   166.3630   156.9190 ca         1 6IX      -0.091300
      6 C26        161.3240   164.3830   155.5460 ca         1 6IX      -0.125000
      7 C01        157.8060   163.4120   147.6430 c3         1 6IX      -0.083100
      8 C03        159.7660   161.9500   148.2310 c3         1 6IX      -0.083100
      9 C04        157.9570   162.3290   149.9290 c3         1 6IX      -0.083100
     10 C05        159.4730   164.2740   149.3410 ca         1 6IX      -0.065300
     11 C06        160.8790   164.4480   149.3040 ca         1 6IX      -0.118000
     12 C07        161.4800   165.5950   149.8500 ca         1 6IX      -0.101500
     13 C08        160.6970   166.6040   150.4390 ca         1 6IX      -0.092300
     14 C12        161.7710   169.1920   153.1590 c3         1 6IX       0.134500
     15 C16        163.3120   169.8880   157.7420 c          1 6IX       0.587100
     16 C18        164.9300   171.8280   157.3150 c3         1 6IX       0.137400
     17 C19        164.1980   172.8750   158.1930 c3         1 6IX      -0.104100
     18 C23        162.6880   167.3970   157.5100 c3         1 6IX      -0.031100
     19 C25        162.2130   165.3240   156.0990 ca         1 6IX      -0.095000
     20 C27        159.9430   164.4750   155.8110 ca         1 6IX       0.104100
     21 C29        158.9330   163.3610   153.8620 c3         1 6IX       0.208900
     22 C30        160.0150   162.4020   153.3750 ca         1 6IX      -0.123300
     23 C31        160.0810   161.0870   153.8750 ca         1 6IX      -0.097500
     24 C32        161.0670   160.2000   153.4070 ca         1 6IX      -0.115000
     25 C33        161.9890   160.6220   152.4340 ca         1 6IX      -0.108000
     26 C34        161.9260   161.9310   151.9300 ca         1 6IX      -0.115000
     27 C35        160.9420   162.8180   152.4000 ca         1 6IX      -0.097500
     28 C36        159.4680   165.4880   156.6590 ca         1 6IX      -0.125000
     29 C37        160.3550   166.4310   157.2060 ca         1 6IX      -0.095000
     30 C39        161.6340   170.5670   152.4290 c3         1 6IX      -0.077400
     31 C40        162.5430   171.7120   152.9640 c3         1 6IX      -0.063700
     32 C41        164.0490   171.3890   152.8090 c3         1 6IX      -0.089600
     33 C42        162.2020   173.0520   152.2740 c3         1 6IX      -0.089600
     34 C43        159.2990   166.4600   150.4510 ca         1 6IX      -0.101500
     35 C44        158.6970   165.3090   149.9140 ca         1 6IX      -0.118000
     36 N10        160.9920   168.0700   152.5050 n3         1 6IX      -0.742600
     37 N14        162.5100   168.9210   155.5350 ns         1 6IX      -0.504900
     38 O22        163.4010   169.9260   158.9620 o          1 6IX      -0.608100
     39 O28        159.0320   163.5860   155.2840 os         1 6IX      -0.363100
     40 O38        160.4950   169.9140   155.1520 o          1 6IX      -0.603100
     41 H1         161.3850   169.1040   157.3120 h1         1 6IX       0.090700
     42 H2         165.8620   170.7930   159.0220 hc         1 6IX       0.044589
     43 H3         166.6490   170.4750   157.4640 hc         1 6IX       0.044589
     44 H4         166.8860   172.0310   158.2840 hc         1 6IX       0.044589
     45 H5         166.1200   173.3270   156.2460 hc         1 6IX       0.044589
     46 H6         165.9260   171.8010   155.3630 hc         1 6IX       0.044589
     47 H7         164.5720   172.9490   155.4680 hc         1 6IX       0.044589
     48 H8         161.7200   163.5840   154.9280 ha         1 6IX       0.123500
     49 H9         157.0200   164.0890   147.9970 hc         1 6IX       0.035589
     50 H10        158.3540   163.9210   146.8410 hc         1 6IX       0.035589
     51 H11        157.3150   162.5320   147.2110 hc         1 6IX       0.035589
     52 H12        160.4620   161.6130   149.0090 hc         1 6IX       0.035589
     53 H13        159.2330   161.0660   147.8610 hc         1 6IX       0.035589
     54 H14        160.3460   162.3580   147.3940 hc         1 6IX       0.035589
     55 H15        157.1770   162.9910   150.3210 hc         1 6IX       0.035589
     56 H16        157.4650   161.4160   149.5720 hc         1 6IX       0.035589
     57 H17        158.6150   162.0520   150.7610 hc         1 6IX       0.035589
     58 H18        161.5330   163.6980   148.8720 ha         1 6IX       0.112000
     59 H19        162.5640   165.6910   149.8260 ha         1 6IX       0.122500
     60 H20        162.4520   167.7130   150.9950 h1         1 6IX       0.039700
     61 H21        161.0840   168.6900   150.4610 h1         1 6IX       0.039700
     62 H22        160.6550   167.0040   154.3310 h1         1 6IX       0.038033
     63 H23        160.3990   166.0390   152.8900 h1         1 6IX       0.038033
     64 H24        162.0570   166.4370   153.3900 h1         1 6IX       0.038033
     65 H25        162.8290   168.9120   153.0830 h1         1 6IX       0.031700
     66 H26        163.8950   172.4560   159.1580 hc         1 6IX       0.044589
     67 H27        164.8510   173.7320   158.3980 hc         1 6IX       0.044589
     68 H28        163.3000   173.2480   157.6860 hc         1 6IX       0.044589
     69 H29        163.7290   167.1390   157.2790 hc         1 6IX       0.068700
     70 H30        162.6080   167.3700   158.6030 hc         1 6IX       0.068700
     71 H31        163.2770   165.2440   155.8820 ha         1 6IX       0.115500
     72 H32        158.9880   164.3120   153.3160 h1         1 6IX       0.058200
     73 H33        157.9580   162.9150   153.6280 h1         1 6IX       0.058200
     74 H34        159.3680   160.7530   154.6270 ha         1 6IX       0.123500
     75 H35        161.1140   159.1860   153.7980 ha         1 6IX       0.111500
     76 H36        162.7500   159.9340   152.0710 ha         1 6IX       0.111000
     77 H37        162.6380   162.2600   151.1760 ha         1 6IX       0.111500
     78 H38        160.9010   163.8300   152.0070 ha         1 6IX       0.123500
     79 H39        158.4060   165.5520   156.8800 ha         1 6IX       0.123500
     80 H40        159.9680   167.2160   157.8520 ha         1 6IX       0.115500
     81 H41        160.5850   170.8830   152.4880 hc         1 6IX       0.057700
     82 H42        161.8590   170.4530   151.3640 hc         1 6IX       0.057700
     83 H43        162.3410   171.8530   154.0340 hc         1 6IX       0.050700
     84 H44        164.3450   170.5490   153.4480 hc         1 6IX       0.034200
     85 H45        164.2880   171.1340   151.7690 hc         1 6IX       0.034200
     86 H46        164.6630   172.2530   153.0910 hc         1 6IX       0.034200
     87 H47        162.8070   173.8680   152.6870 hc         1 6IX       0.034200
     88 H48        162.3920   172.9960   151.1950 hc         1 6IX       0.034200
     89 H49        161.1460   173.3080   152.4230 hc         1 6IX       0.034200
     90 H50        158.6800   167.2330   150.9000 ha         1 6IX       0.122500
     91 H51        157.6140   165.2260   149.9570 ha         1 6IX       0.112000
     92 H53        163.2910   168.4570   155.0820 hn         1 6IX       0.320500
     93 H54        163.8460   170.6250   155.9260 hn         1 6IX       0.323500
     94 N17        164.0120   170.7520   156.9160 ns         1 6IX      -0.502900
     95 C09        161.3620   167.8260   151.0760 c3         1 6IX       0.237100
     96 C11        161.0320   166.8250   153.3170 c3         1 6IX       0.150100
     97 C02        158.7690   163.0040   148.7900 c3         1 6IX       0.001300
@<TRIPOS>BOND
     1     1    14 1   
     2     1    37 1   
     3     1    40 2   
     4     2    15 1   
     5     2    18 1   
     6     2    37 1   
     7     2    41 1   
     8     3    16 1   
     9     3    42 1   
    10     3    43 1   
    11     3    44 1   
    12     4    16 1   
    13     4    45 1   
    14     4    46 1   
    15     4    47 1   
    16     5    18 1   
    17     5    19 ar  
    18     5    29 ar  
    19     6    19 ar  
    20     6    20 ar  
    21     6    48 1   
    22     7    49 1   
    23     7    50 1   
    24     7    51 1   
    25     7    97 1   
    26     8    52 1   
    27     8    53 1   
    28     8    54 1   
    29     8    97 1   
    30     9    55 1   
    31     9    56 1   
    32     9    57 1   
    33     9    97 1   
    34    10    11 ar  
    35    10    35 ar  
    36    10    97 1   
    37    11    12 ar  
    38    11    58 1   
    39    12    13 ar  
    40    12    59 1   
    41    13    34 ar  
    42    13    95 1   
    43    14    30 1   
    44    14    36 1   
    45    14    65 1   
    46    15    38 2   
    47    15    94 1   
    48    16    17 1   
    49    16    94 1   
    50    17    66 1   
    51    17    67 1   
    52    17    68 1   
    53    18    69 1   
    54    18    70 1   
    55    19    71 1   
    56    20    28 ar  
    57    20    39 1   
    58    21    22 1   
    59    21    39 1   
    60    21    72 1   
    61    21    73 1   
    62    22    23 ar  
    63    22    27 ar  
    64    23    24 ar  
    65    23    74 1   
    66    24    25 ar  
    67    24    75 1   
    68    25    26 ar  
    69    25    76 1   
    70    26    27 ar  
    71    26    77 1   
    72    27    78 1   
    73    28    29 ar  
    74    28    79 1   
    75    29    80 1   
    76    30    31 1   
    77    30    81 1   
    78    30    82 1   
    79    31    32 1   
    80    31    33 1   
    81    31    83 1   
    82    32    84 1   
    83    32    85 1   
    84    32    86 1   
    85    33    87 1   
    86    33    88 1   
    87    33    89 1   
    88    34    35 ar  
    89    34    90 1   
    90    35    91 1   
    91    36    95 1   
    92    36    96 1   
    93    37    92 1   
    94    60    95 1   
    95    61    95 1   
    96    62    96 1   
    97    63    96 1   
    98    64    96 1   
    99    93    94 1   
@<TRIPOS>SUBSTRUCTURE
     1 6IX         1 TEMP              0 ****  ****    0 ROOT
