@<TRIPOS>MOLECULE
6IY
   93    92     1     0     0
SMALL
bcc


@<TRIPOS>ATOM
      1 N          123.8190   157.0250    97.2450 n8         1 6IY      -0.892800
      2 O          122.2260   151.7520   105.2810 o          1 6IY      -0.514000
      3 C1         121.3880   152.3750   113.0350 c3         1 6IY      -0.091100
      4 C10        121.4730   154.6170   101.6870 c3         1 6IY       0.197400
      5 C11        123.6150   155.0010    98.5650 c3         1 6IY       0.203400
      6 C12        122.8910   155.9900    97.6720 c3         1 6IY       0.130800
      7 C14        122.4770   155.7010   106.0310 c3         1 6IY      -0.137400
      8 C15        123.8770   156.1730   105.6200 c3         1 6IY      -0.070400
      9 C16        124.8870   155.8620   106.7190 c3         1 6IY      -0.076400
     10 C17        126.2260   156.5600   106.5250 c3         1 6IY      -0.071400
     11 C18        127.3440   156.0810   107.4510 c3         1 6IY      -0.071400
     12 C19        127.0200   156.1110   108.9510 c3         1 6IY      -0.071400
     13 C2         120.5430   152.0470   111.8130 c3         1 6IY      -0.074400
     14 C20        126.4470   154.8020   109.4900 c3         1 6IY      -0.080400
     15 C21        126.1590   154.8360   110.9870 c3         1 6IY      -0.073400
     16 C22        125.4030   153.6110   111.5010 c3         1 6IY      -0.074400
     17 C23        126.1570   152.2940   111.3390 c3         1 6IY      -0.073400
     18 C24        125.3740   151.0730   111.8170 c3         1 6IY      -0.075400
     19 C25        125.1500   151.0060   113.3230 c3         1 6IY      -0.075400
     20 C26        124.3830   149.7600   113.7480 c3         1 6IY      -0.078400
     21 C27        124.0760   149.7160   115.2390 c3         1 6IY      -0.074400
     22 C28        123.2740   148.4870   115.6440 c3         1 6IY      -0.088100
     23 C3         121.3070   152.2070   110.5050 c3         1 6IY      -0.076400
     24 C4         120.4550   151.9190   109.2760 c3         1 6IY      -0.076400
     25 C5         121.2200   152.0910   107.9710 c3         1 6IY      -0.067400
     26 C6         120.3330   151.8480   106.7570 c3         1 6IY      -0.143400
     27 C7         121.0600   152.0020   105.4480 c          1 6IY       0.641100
     28 C8         120.7570   152.7000   103.1850 c3         1 6IY       0.134400
     29 C9         120.9280   154.2030   103.0390 c3         1 6IY       0.109100
     30 O1         120.2380   152.4210   104.4850 os         1 6IY      -0.442900
     31 O2         122.7660   154.1000   101.4700 os         1 6IY      -0.561200
     32 O3         124.4960   152.7210   100.3210 o          1 6IY      -0.809000
     33 O4         121.9760   151.9810   100.2320 o          1 6IY      -0.809000
     34 O5         122.7150   153.9700    98.9290 os         1 6IY      -0.586200
     35 O6         121.8210   154.6110   104.0770 os         1 6IY      -0.396900
     36 O7         120.5430   156.3310   104.7330 o          1 6IY      -0.562000
     37 P          123.0370   153.0350   100.2390 p5         1 6IY       1.388800
     38 H1         123.3740   157.6170    96.5560 hn         1 6IY       0.324300
     39 H2         124.0360   157.6310    98.0260 hn         1 6IY       0.324300
     40 H4         120.8190   152.2670   113.9590 hc         1 6IY       0.031033
     41 H5         122.2550   151.7160   113.1020 hc         1 6IY       0.031033
     42 H6         121.7600   153.4010   112.9930 hc         1 6IY       0.031033
     43 H7         121.5170   155.7100   101.6470 h1         1 6IY       0.029700
     44 H8         120.7520   154.3030   100.9260 h1         1 6IY       0.029700
     45 H9         124.4790   154.5940    98.0290 h1         1 6IY       0.028200
     46 H10        124.0010   155.5290    99.4460 h1         1 6IY       0.028200
     47 H11        122.0080   156.3720    98.2030 h1         1 6IY       0.030200
     48 H12        122.5240   155.4680    96.7850 h1         1 6IY       0.030200
     49 H13        122.0720   156.3680   106.7920 hc         1 6IY       0.060700
     50 H14        122.5590   154.7070   106.4790 hc         1 6IY       0.060700
     51 H15        124.1920   155.6810   104.6970 hc         1 6IY       0.059700
     52 H16        123.8530   157.2460   105.4120 hc         1 6IY       0.059700
     53 H17        124.4660   156.1440   107.6890 hc         1 6IY       0.038200
     54 H18        125.0310   154.7770   106.7570 hc         1 6IY       0.038200
     55 H19        126.5560   156.4300   105.4890 hc         1 6IY       0.038700
     56 H20        126.0810   157.6370   106.6620 hc         1 6IY       0.038700
     57 H21        127.6330   155.0630   107.1690 hc         1 6IY       0.037200
     58 H22        128.2230   156.7010   107.2570 hc         1 6IY       0.037200
     59 H23        127.9320   156.3390   109.5110 hc         1 6IY       0.031200
     60 H24        126.3280   156.9340   109.1650 hc         1 6IY       0.031200
     61 H25        119.6590   152.6930   111.7950 hc         1 6IY       0.034700
     62 H26        120.1670   151.0230   111.8890 hc         1 6IY       0.034700
     63 H27        125.5250   154.5440   108.9610 hc         1 6IY       0.043700
     64 H28        127.1550   153.9990   109.2630 hc         1 6IY       0.043700
     65 H29        127.0980   154.9470   111.5400 hc         1 6IY       0.032200
     66 H30        125.5690   155.7300   111.2140 hc         1 6IY       0.032200
     67 H31        124.4430   153.5380   110.9760 hc         1 6IY       0.036200
     68 H32        125.1570   153.7690   112.5550 hc         1 6IY       0.036200
     69 H33        126.4100   152.1480   110.2860 hc         1 6IY       0.040200
     70 H34        127.1120   152.3510   111.8750 hc         1 6IY       0.040200
     71 H35        124.4050   151.0520   111.3050 hc         1 6IY       0.039200
     72 H36        125.8990   150.1670   111.5000 hc         1 6IY       0.039200
     73 H37        126.1180   151.0300   113.8350 hc         1 6IY       0.035200
     74 H38        124.6060   151.8920   113.6640 hc         1 6IY       0.035200
     75 H39        123.4440   149.7050   113.1850 hc         1 6IY       0.038200
     76 H40        124.9530   148.8670   113.4660 hc         1 6IY       0.038200
     77 H41        125.0130   149.7440   115.8050 hc         1 6IY       0.034700
     78 H42        123.5270   150.6200   115.5200 hc         1 6IY       0.034700
     79 H43        123.0750   148.4720   116.7160 hc         1 6IY       0.030367
     80 H44        122.3110   148.4600   115.1290 hc         1 6IY       0.030367
     81 H45        123.8060   147.5670   115.3940 hc         1 6IY       0.030367
     82 H46        122.1780   151.5420   110.5090 hc         1 6IY       0.039200
     83 H47        121.7060   153.2250   110.4410 hc         1 6IY       0.039200
     84 H48        119.5820   152.5810   109.2780 hc         1 6IY       0.035200
     85 H49        120.0610   150.8980   109.3340 hc         1 6IY       0.035200
     86 H50        122.0730   151.4100   107.9550 hc         1 6IY       0.052200
     87 H51        121.6320   153.1040   107.9270 hc         1 6IY       0.052200
     88 H52        119.4650   152.5100   106.7760 hc         1 6IY       0.063700
     89 H53        119.9340   150.8270   106.7880 hc         1 6IY       0.063700
     90 H54        120.0140   152.3520   102.4680 h1         1 6IY       0.099700
     91 H55        121.6860   152.1630   103.0040 h1         1 6IY       0.099700
     92 H56        119.9560   154.6870   103.1670 h1         1 6IY       0.055700
     93 C13        121.4970   155.6140   104.8940 c          1 6IY       0.649100
@<TRIPOS>BOND
     1     1     6 1   
     2     1    38 1   
     3     1    39 1   
     4     2    27 2   
     5     3    13 1   
     6     3    40 1   
     7     3    41 1   
     8     3    42 1   
     9     4    29 1   
    10     4    31 1   
    11     4    43 1   
    12     4    44 1   
    13     5     6 1   
    14     5    34 1   
    15     5    45 1   
    16     5    46 1   
    17     6    47 1   
    18     6    48 1   
    19     7     8 1   
    20     7    49 1   
    21     7    50 1   
    22     7    93 1   
    23     8     9 1   
    24     8    51 1   
    25     8    52 1   
    26     9    10 1   
    27     9    53 1   
    28     9    54 1   
    29    10    11 1   
    30    10    55 1   
    31    10    56 1   
    32    11    12 1   
    33    11    57 1   
    34    11    58 1   
    35    12    14 1   
    36    12    59 1   
    37    12    60 1   
    38    13    23 1   
    39    13    61 1   
    40    13    62 1   
    41    14    15 1   
    42    14    63 1   
    43    14    64 1   
    44    15    16 1   
    45    15    65 1   
    46    15    66 1   
    47    16    17 1   
    48    16    67 1   
    49    16    68 1   
    50    17    18 1   
    51    17    69 1   
    52    17    70 1   
    53    18    19 1   
    54    18    71 1   
    55    18    72 1   
    56    19    20 1   
    57    19    73 1   
    58    19    74 1   
    59    20    21 1   
    60    20    75 1   
    61    20    76 1   
    62    21    22 1   
    63    21    77 1   
    64    21    78 1   
    65    22    79 1   
    66    22    80 1   
    67    22    81 1   
    68    23    24 1   
    69    23    82 1   
    70    23    83 1   
    71    24    25 1   
    72    24    84 1   
    73    24    85 1   
    74    25    26 1   
    75    25    86 1   
    76    25    87 1   
    77    26    27 1   
    78    26    88 1   
    79    26    89 1   
    80    27    30 1   
    81    28    29 1   
    82    28    30 1   
    83    28    90 1   
    84    28    91 1   
    85    29    35 1   
    86    29    92 1   
    87    31    37 1   
    88    32    37 1   
    89    33    37 1   
    90    34    37 1   
    91    35    93 1   
    92    36    93 2   
@<TRIPOS>SUBSTRUCTURE
     1 6IY         1 TEMP              0 ****  ****    0 ROOT
