@<TRIPOS>MOLECULE
6IY
   93    92     1     0     0
SMALL
No Charge or Current Charge


@<TRIPOS>ATOM
      1 N          124.5180   157.3780    99.1030 n8         1 6IY      -1.003200
      2 O          122.4480   151.0140   104.3660 o          1 6IY      -0.465000
      3 C1         121.4220   152.8270   112.2570 c3         1 6IY      -0.091100
      4 C10        120.9060   154.6800   101.8700 c3         1 6IY       0.220600
      5 C11        122.7520   155.6850    98.3730 c3         1 6IY       0.226600
      6 C12        123.5630   156.3270    99.5460 c3         1 6IY       0.130800
      7 C14        122.7230   155.0520   105.9680 c3         1 6IY      -0.137400
      8 C15        124.0390   155.7680   105.5850 c3         1 6IY      -0.070400
      9 C16        125.1340   155.5250   106.6460 c3         1 6IY      -0.076400
     10 C17        126.4570   156.2760   106.3880 c3         1 6IY      -0.071400
     11 C18        127.6360   155.8650   107.3130 c3         1 6IY      -0.071400
     12 C19        127.3950   156.0240   108.8400 c3         1 6IY      -0.071400
     13 C2         121.0760   151.7620   111.1990 c3         1 6IY      -0.074400
     14 C20        126.7670   154.7860   109.5290 c3         1 6IY      -0.080400
     15 C21        126.4680   155.0010   111.0310 c3         1 6IY      -0.073400
     16 C22        125.5630   153.9110   111.6550 c3         1 6IY      -0.074400
     17 C23        126.1850   152.4920   111.6910 c3         1 6IY      -0.073400
     18 C24        125.2250   151.3890   112.1980 c3         1 6IY      -0.075400
     19 C25        124.7830   151.5440   113.6730 c3         1 6IY      -0.075400
     20 C26        123.8620   150.3980   114.1460 c3         1 6IY      -0.078400
     21 C27        123.3760   150.5740   115.6000 c3         1 6IY      -0.074400
     22 C28        122.4470   149.4370   116.0670 c3         1 6IY      -0.088100
     23 C3         121.3450   152.2330   109.7540 c3         1 6IY      -0.076400
     24 C4         120.9560   151.1800   108.6910 c3         1 6IY      -0.076400
     25 C5         121.2610   151.6410   107.2500 c3         1 6IY      -0.067400
     26 C6         120.8860   150.5940   106.1740 c3         1 6IY      -0.143400
     27 C7         121.3000   151.0790   104.7820 c          1 6IY       0.592100
     28 C8         120.4960   152.2720   102.8240 c3         1 6IY       0.157600
     29 C9         120.6140   153.7930   103.1220 c3         1 6IY       0.132300
     30 O1         120.2330   151.5680   104.0650 os         1 6IY      -0.466100
     31 O2         122.1120   154.2540   101.2120 os         1 6IY      -0.584400
     32 O3         123.3540   152.8970    99.4160 o          1 6IY      -0.809000
     33 O4         120.9360   152.5230    99.7350 o          1 6IY      -0.809000
     34 O5         121.7240   154.7950    98.8530 os         1 6IY      -0.609400
     35 O6         121.6490   153.9820   104.1170 os         1 6IY      -0.420100
     36 O7         120.9100   156.0780   104.7140 o          1 6IY      -0.513000
     37 P          122.0470   153.5150    99.7810 p5         1 6IY       1.388800
     38 H1         125.0320   157.7280    99.9210 hn         1 6IY       0.379500
     39 H2         125.2490   156.9480    98.5230 hn         1 6IY       0.379500
     40 H4         121.2520   152.4350   113.2660 hc         1 6IY       0.031033
     41 H5         122.4740   153.1260   112.1770 hc         1 6IY       0.031033
     42 H6         120.8000   153.7210   112.1250 hc         1 6IY       0.031033
     43 H7         120.9980   155.7300   102.1710 h1         1 6IY       0.029700
     44 H8         120.0450   154.6220   101.1910 h1         1 6IY       0.029700
     45 H9         122.2890   156.4880    97.7860 h1         1 6IY       0.028200
     46 H10        123.4410   155.1490    97.7070 h1         1 6IY       0.028200
     47 H11        124.1370   155.5530   100.0720 h1         1 6IY       0.030200
     48 H12        122.8620   156.7830   100.2580 h1         1 6IY       0.030200
     49 H13        122.3230   155.5070   106.8820 hc         1 6IY       0.060700
     50 H14        122.9690   153.9990   106.1440 hc         1 6IY       0.060700
     51 H15        124.3880   155.4000   104.6120 hc         1 6IY       0.059700
     52 H16        123.8540   156.8450   105.4790 hc         1 6IY       0.059700
     53 H17        124.7370   155.8370   107.6190 hc         1 6IY       0.038200
     54 H18        125.3380   154.4490   106.7010 hc         1 6IY       0.038200
     55 H19        126.7640   156.1070   105.3480 hc         1 6IY       0.038700
     56 H20        126.2810   157.3540   106.4880 hc         1 6IY       0.038700
     57 H21        127.9280   154.8300   107.0950 hc         1 6IY       0.037200
     58 H22        128.4990   156.4850   107.0400 hc         1 6IY       0.037200
     59 H23        128.3600   156.2250   109.3220 hc         1 6IY       0.031200
     60 H24        126.7720   156.9090   109.0180 hc         1 6IY       0.031200
     61 H25        120.0190   151.4880   111.3040 hc         1 6IY       0.034700
     62 H26        121.6620   150.8560   111.3990 hc         1 6IY       0.034700
     63 H27        125.8350   154.5030   109.0320 hc         1 6IY       0.043700
     64 H28        127.4490   153.9360   109.4130 hc         1 6IY       0.043700
     65 H29        127.4110   155.0620   111.5880 hc         1 6IY       0.032200
     66 H30        125.9650   155.9680   111.1560 hc         1 6IY       0.032200
     67 H31        124.6170   153.8760   111.1010 hc         1 6IY       0.036200
     68 H32        125.3160   154.2210   112.6770 hc         1 6IY       0.036200
     69 H33        126.5080   152.2120   110.6820 hc         1 6IY       0.040200
     70 H34        127.0870   152.5060   112.3160 hc         1 6IY       0.040200
     71 H35        124.3370   151.3640   111.5540 hc         1 6IY       0.039200
     72 H36        125.7220   150.4190   112.0800 hc         1 6IY       0.039200
     73 H37        125.6720   151.5820   114.3140 hc         1 6IY       0.035200
     74 H38        124.2540   152.4950   113.8020 hc         1 6IY       0.035200
     75 H39        122.9910   150.3380   113.4820 hc         1 6IY       0.038200
     76 H40        124.3980   149.4450   114.0570 hc         1 6IY       0.038200
     77 H41        124.2430   150.6260   116.2700 hc         1 6IY       0.034700
     78 H42        122.8430   151.5290   115.6920 hc         1 6IY       0.034700
     79 H43        122.1280   149.6050   117.1030 hc         1 6IY       0.030367
     80 H44        121.5520   149.3840   115.4360 hc         1 6IY       0.030367
     81 H45        122.9630   148.4710   116.0190 hc         1 6IY       0.030367
     82 H46        122.4100   152.4770   109.6490 hc         1 6IY       0.039200
     83 H47        120.7850   153.1580   109.5650 hc         1 6IY       0.039200
     84 H48        119.8850   150.9560   108.7800 hc         1 6IY       0.035200
     85 H49        121.4980   150.2480   108.8930 hc         1 6IY       0.035200
     86 H50        122.3330   151.8630   107.1720 hc         1 6IY       0.052200
     87 H51        120.7260   152.5780   107.0450 hc         1 6IY       0.052200
     88 H52        119.8000   150.4450   106.2050 hc         1 6IY       0.063700
     89 H53        121.4080   149.6560   106.3930 hc         1 6IY       0.063700
     90 H54        119.6590   152.1270   102.1280 h1         1 6IY       0.099700
     91 H55        121.4020   151.9060   102.3250 h1         1 6IY       0.099700
     92 H56        119.6450   154.1080   103.5330 h1         1 6IY       0.055700
     93 C13        121.6650   155.1270   104.8680 c          1 6IY       0.600100
@<TRIPOS>BOND
     1     1     6 1   
     2     1    38 1   
     3     1    39 1   
     4     2    27 2   
     5     3    13 1   
     6     3    40 1   
     7     3    41 1   
     8     3    42 1   
     9     4    29 1   
    10     4    31 1   
    11     4    43 1   
    12     4    44 1   
    13     5     6 1   
    14     5    34 1   
    15     5    45 1   
    16     5    46 1   
    17     6    47 1   
    18     6    48 1   
    19     7     8 1   
    20     7    49 1   
    21     7    50 1   
    22     7    93 1   
    23     8     9 1   
    24     8    51 1   
    25     8    52 1   
    26     9    10 1   
    27     9    53 1   
    28     9    54 1   
    29    10    11 1   
    30    10    55 1   
    31    10    56 1   
    32    11    12 1   
    33    11    57 1   
    34    11    58 1   
    35    12    14 1   
    36    12    59 1   
    37    12    60 1   
    38    13    23 1   
    39    13    61 1   
    40    13    62 1   
    41    14    15 1   
    42    14    63 1   
    43    14    64 1   
    44    15    16 1   
    45    15    65 1   
    46    15    66 1   
    47    16    17 1   
    48    16    67 1   
    49    16    68 1   
    50    17    18 1   
    51    17    69 1   
    52    17    70 1   
    53    18    19 1   
    54    18    71 1   
    55    18    72 1   
    56    19    20 1   
    57    19    73 1   
    58    19    74 1   
    59    20    21 1   
    60    20    75 1   
    61    20    76 1   
    62    21    22 1   
    63    21    77 1   
    64    21    78 1   
    65    22    79 1   
    66    22    80 1   
    67    22    81 1   
    68    23    24 1   
    69    23    82 1   
    70    23    83 1   
    71    24    25 1   
    72    24    84 1   
    73    24    85 1   
    74    25    26 1   
    75    25    86 1   
    76    25    87 1   
    77    26    27 1   
    78    26    88 1   
    79    26    89 1   
    80    27    30 1   
    81    28    29 1   
    82    28    30 1   
    83    28    90 1   
    84    28    91 1   
    85    29    35 1   
    86    29    92 1   
    87    31    37 1   
    88    32    37 1   
    89    33    37 1   
    90    34    37 1   
    91    35    93 1   
    92    36    93 2   
@<TRIPOS>SUBSTRUCTURE
     1 6IY         1 TEMP              0 ****  ****    0 ROOT
