@<TRIPOS>MOLECULE
6IZ
   47    51     1     0     0
SMALL
No Charge or Current Charge


@<TRIPOS>ATOM
      1 C2          61.2310    54.2270    17.9200 c          1 6IZ       0.628100
      2 C4          59.6080    52.2290    17.7890 ca         1 6IZ      -0.040000
      3 C5          58.8290    52.4430    18.9500 ca         1 6IZ      -0.118500
      4 C6          57.8750    51.4890    19.3500 ca         1 6IZ      -0.125500
      5 C7          57.6890    50.3230    18.5930 ca         1 6IZ       0.149000
      6 C11         62.1690    54.8970    16.8160 cy         1 6IZ      -0.168700
      7 C12         61.0760    55.8740    16.2600 cy         1 6IZ       0.158100
      8 C15         63.0630    53.9840    15.9810 ca         1 6IZ      -0.066300
      9 C16         64.2710    53.5070    16.5160 ca         1 6IZ      -0.101500
     10 C17         65.0960    52.6560    15.7610 ca         1 6IZ      -0.080500
     11 C18         64.7270    52.2620    14.4550 ca         1 6IZ      -0.099900
     12 C19         63.5080    52.7460    13.9260 ca         1 6IZ      -0.080500
     13 C21         65.5980    51.3690    13.6720 cc         1 6IZ       0.464400
     14 N22         65.3140    50.9310    12.3780 na         1 6IZ      -0.308600
     15 C23         66.3410    50.1290    11.9910 ca         1 6IZ      -0.077200
     16 C24         66.5460    49.4400    10.7900 ca         1 6IZ      -0.117000
     17 C27         68.4000    49.3340    12.9420 ca         1 6IZ      -0.047000
     18 O1          61.0660    54.4430    19.1190 o          1 6IZ      -0.569100
     19 N3          60.5800    53.1530    17.3170 ns         1 6IZ      -0.138000
     20 F8          56.7720    49.4090    18.9790 f          1 6IZ      -0.177000
     21 C9          58.4470    50.1060    17.4330 ca         1 6IZ      -0.125500
     22 C10         59.4000    51.0590    17.0310 ca         1 6IZ      -0.118500
     23 O13         61.3640    56.7940    17.3840 oq         1 6IZ      -0.439000
     24 C14         62.6650    56.1310    17.6410 cy         1 6IZ       0.158100
     25 C20         62.6850    53.5980    14.6830 ca         1 6IZ      -0.101500
     26 C25         67.7250    48.6740    10.6750 ca         1 6IZ      -0.089000
     27 C26         68.6490    48.6210    11.7470 ca         1 6IZ      -0.134000
     28 C28         67.2210    50.0880    13.0330 ca         1 6IZ       0.070400
     29 N29         66.7750    50.8600    14.1010 nd         1 6IZ      -0.570100
     30 H1          58.9370    53.3460    19.5440 ha         1 6IZ       0.131000
     31 H2          57.2780    51.6550    20.2430 ha         1 6IZ       0.134000
     32 H3          61.3420    56.3340    15.3010 h1         1 6IZ       0.064450
     33 H4          60.0340    55.5310    16.2460 h1         1 6IZ       0.064450
     34 H5          64.5750    53.7940    17.5200 ha         1 6IZ       0.120000
     35 H6          66.0260    52.3020    16.2000 ha         1 6IZ       0.127000
     36 H7          63.1850    52.4680    12.9260 ha         1 6IZ       0.127000
     37 H8          64.4950    51.1720    11.8390 hn         1 6IZ       0.356000
     38 H9          65.8260    49.4910     9.9760 ha         1 6IZ       0.117000
     39 H10         69.1020    49.3000    13.7710 ha         1 6IZ       0.129000
     40 H11         60.8480    53.0040    16.3530 hn         1 6IZ       0.151000
     41 H12         58.2940    49.2020    16.8480 ha         1 6IZ       0.134000
     42 H13         59.9830    50.8820    16.1290 ha         1 6IZ       0.131000
     43 H14         62.8840    55.9900    18.7060 h1         1 6IZ       0.064450
     44 H15         63.4830    56.6770    17.1570 h1         1 6IZ       0.064450
     45 H16         61.7520    53.9550    14.2530 ha         1 6IZ       0.120000
     46 H17         67.9250    48.1220     9.7590 ha         1 6IZ       0.113000
     47 H18         69.5560    48.0280    11.6510 ha         1 6IZ       0.115000
@<TRIPOS>BOND
     1     1     6 1   
     2     1    18 2   
     3     1    19 1   
     4     2     3 ar  
     5     2    19 1   
     6     2    22 ar  
     7     3     4 ar  
     8     3    30 1   
     9     4     5 ar  
    10     4    31 1   
    11     5    20 1   
    12     5    21 ar  
    13     6     7 1   
    14     6     8 1   
    15     6    24 1   
    16     7    23 1   
    17     7    32 1   
    18     7    33 1   
    19     8     9 ar  
    20     8    25 ar  
    21     9    10 ar  
    22     9    34 1   
    23    10    11 ar  
    24    10    35 1   
    25    11    12 ar  
    26    11    13 1   
    27    12    25 ar  
    28    12    36 1   
    29    13    14 1   
    30    13    29 2   
    31    14    15 1   
    32    14    37 1   
    33    15    16 ar  
    34    15    28 ar  
    35    16    26 ar  
    36    16    38 1   
    37    17    27 ar  
    38    17    28 ar  
    39    17    39 1   
    40    19    40 1   
    41    21    22 ar  
    42    21    41 1   
    43    22    42 1   
    44    23    24 1   
    45    24    43 1   
    46    24    44 1   
    47    25    45 1   
    48    26    27 ar  
    49    26    46 1   
    50    27    47 1   
    51    28    29 1   
@<TRIPOS>SUBSTRUCTURE
     1 6IZ         1 TEMP              0 ****  ****    0 ROOT
