@<TRIPOS>MOLECULE
6IZ
   47    51     1     0     0
SMALL
bcc


@<TRIPOS>ATOM
      1 C2          61.2770    53.7230    17.6580 c          1 6IZ       0.695100
      2 C4          59.2580    52.2930    17.8170 ca         1 6IZ       0.052600
      3 C5          59.4790    51.6970    19.0580 ca         1 6IZ      -0.136500
      4 C6          58.4710    50.9590    19.6650 ca         1 6IZ      -0.143500
      5 C7          57.2580    50.8070    19.0290 ca         1 6IZ       0.113900
      6 C11         62.0210    54.6030    16.6550 cy         1 6IZ      -0.168700
      7 C12         61.1710    55.6440    15.8910 cy         1 6IZ       0.134900
      8 C15         62.9520    53.7250    15.8580 ca         1 6IZ      -0.066300
      9 C16         64.1610    53.3180    16.4210 ca         1 6IZ      -0.119500
     10 C17         65.0420    52.5270    15.7100 ca         1 6IZ      -0.098500
     11 C18         64.7400    52.1150    14.4110 ca         1 6IZ      -0.099900
     12 C19         63.5220    52.5010    13.8570 ca         1 6IZ      -0.098500
     13 C21         65.7240    51.3230    13.6740 cc         1 6IZ       0.464400
     14 N22         65.4720    50.7340    12.4720 na         1 6IZ      -0.258300
     15 C23         66.6190    50.1040    12.0740 ca         1 6IZ      -0.077200
     16 C24         66.9430    49.3590    10.9460 ca         1 6IZ      -0.135000
     17 C27         68.8380    49.8540    13.0170 ca         1 6IZ      -0.065000
     18 O1          61.6630    53.6080    18.8050 o          1 6IZ      -0.569100
     19 N3          60.2040    53.0780    17.1420 ns         1 6IZ      -0.464100
     20 F8          56.2800    50.1090    19.6300 f          1 6IZ      -0.141900
     21 C9          57.0230    51.3620    17.7860 ca         1 6IZ      -0.143500
     22 C10         58.0260    52.1040    17.1870 ca         1 6IZ      -0.136500
     23 O13         61.7470    56.7190    16.6270 oq         1 6IZ      -0.392600
     24 C14         62.6540    55.8470    17.3020 cy         1 6IZ       0.134900
     25 C20         62.6380    53.2910    14.5760 ca         1 6IZ      -0.119500
     26 C25         68.2350    48.8680    10.8780 ca         1 6IZ      -0.107000
     27 C26         69.1690    49.1120    11.8980 ca         1 6IZ      -0.152000
     28 C28         67.5400    50.3580    13.1050 ca         1 6IZ       0.070400
     29 N29         66.9500    51.1170    14.0810 nd         1 6IZ      -0.570100
     30 H1          60.4230    51.8000    19.5660 ha         1 6IZ       0.149000
     31 H2          58.6440    50.5030    20.6310 ha         1 6IZ       0.152000
     32 H3          61.3880    55.7080    14.8210 h1         1 6IZ       0.064450
     33 H4          60.0880    55.5800    16.0250 h1         1 6IZ       0.064450
     34 H5          64.4250    53.6300    17.4240 ha         1 6IZ       0.138000
     35 H6          65.9810    52.2320    16.1600 ha         1 6IZ       0.145000
     36 H7          63.2470    52.2160    12.8490 ha         1 6IZ       0.145000
     37 H8          64.5970    50.7250    11.9720 hn         1 6IZ       0.305700
     38 H9          66.2250    49.1720    10.1590 ha         1 6IZ       0.135000
     39 H10         69.5600    50.0410    13.8020 ha         1 6IZ       0.147000
     40 H11         59.9730    53.2780    16.1800 hn         1 6IZ       0.317500
     41 H12         56.0690    51.2300    17.2910 ha         1 6IZ       0.152000
     42 H13         57.8390    52.5510    16.2180 ha         1 6IZ       0.149000
     43 H14         62.5770    55.9130    18.3890 h1         1 6IZ       0.064450
     44 H15         63.6940    56.0170    17.0080 h1         1 6IZ       0.064450
     45 H16         61.7050    53.5800    14.1090 ha         1 6IZ       0.138000
     46 H17         68.5350    48.2830    10.0190 ha         1 6IZ       0.131000
     47 H18         70.1680    48.7090    11.8030 ha         1 6IZ       0.133000
@<TRIPOS>BOND
     1     1     6 1   
     2     1    18 2   
     3     1    19 1   
     4     2     3 ar  
     5     2    19 1   
     6     2    22 ar  
     7     3     4 ar  
     8     3    30 1   
     9     4     5 ar  
    10     4    31 1   
    11     5    20 1   
    12     5    21 ar  
    13     6     7 1   
    14     6     8 1   
    15     6    24 1   
    16     7    23 1   
    17     7    32 1   
    18     7    33 1   
    19     8     9 ar  
    20     8    25 ar  
    21     9    10 ar  
    22     9    34 1   
    23    10    11 ar  
    24    10    35 1   
    25    11    12 ar  
    26    11    13 1   
    27    12    25 ar  
    28    12    36 1   
    29    13    14 1   
    30    13    29 2   
    31    14    15 1   
    32    14    37 1   
    33    15    16 ar  
    34    15    28 ar  
    35    16    26 ar  
    36    16    38 1   
    37    17    27 ar  
    38    17    28 ar  
    39    17    39 1   
    40    19    40 1   
    41    21    22 ar  
    42    21    41 1   
    43    22    42 1   
    44    23    24 1   
    45    24    43 1   
    46    24    44 1   
    47    25    45 1   
    48    26    27 ar  
    49    26    46 1   
    50    27    47 1   
    51    28    29 1   
@<TRIPOS>SUBSTRUCTURE
     1 6IZ         1 TEMP              0 ****  ****    0 ROOT
