@<TRIPOS>MOLECULE
6J0
   43    45     1     0     0
SMALL
No Charge or Current Charge


@<TRIPOS>ATOM
      1 N01          8.1280    -1.6480     0.6090 nc         1 6J0      -0.673000
      2 C02          6.8660    -1.4160     0.9640 cd         1 6J0       0.429400
      3 N03          6.1720    -0.9730    -0.1440 na         1 6J0      -0.190000
      4 C04          7.0670    -0.7060    -1.1620 cd         1 6J0      -0.188000
      5 C05          8.2480    -1.2160    -0.6900 cc         1 6J0       0.222900
      6 C1          -5.8710     0.4360    -0.3390 ca         1 6J0      -0.056300
      7 N11          5.5940     1.2400     0.5050 nb         1 6J0      -0.236000
      8 C12          5.2090    -0.0030     0.1150 ca         1 6J0       0.281500
      9 N13          3.9080    -0.3470    -0.0360 nb         1 6J0      -0.299000
     10 C14          2.9680     0.5740     0.2080 ca         1 6J0       0.418900
     11 C15          3.2900     1.8680     0.6120 ca         1 6J0      -0.311000
     12 C16          4.6480     2.1650     0.7500 ca         1 6J0       0.162900
     13 N17          1.6650     0.1510     0.0350 nu         1 6J0      -0.928100
     14 C18          0.4310     0.9470     0.2120 c3         1 6J0       0.228800
     15 C19         -0.8520     0.1160    -0.0790 c3         1 6J0       0.143800
     16 C2          -6.5930    -0.2290     0.6720 ca         1 6J0      -0.152000
     17 N20         -2.0890     0.9130     0.1090 n7         1 6J0      -0.863400
     18 C21         -3.3450     0.2040    -0.2070 c3         1 6J0       0.160800
     19 C22         -4.5580     1.1360    -0.0140 c3         1 6J0      -0.036100
     20 C3          -7.8000    -0.8760     0.3660 ca         1 6J0       0.172000
     21 C4          -8.2980    -0.8690    -0.9460 ca         1 6J0      -0.150000
     22 C5          -7.5830    -0.2090    -1.9600 ca         1 6J0      -0.082000
     23 C6          -6.3730     0.4410    -1.6560 ca         1 6J0      -0.123000
     24 F7          -8.4870    -1.5110     1.3400 f          1 6J0      -0.180000
     25 H02          6.4120    -1.5440     1.9410 h5         1 6J0       0.070100
     26 H04          6.8160    -0.2160    -2.0970 h4         1 6J0       0.176000
     27 H05          9.2060    -1.2560    -1.1910 h4         1 6J0       0.039100
     28 H15          2.5310     2.6180     0.8110 ha         1 6J0       0.138000
     29 H16          4.9880     3.1510     1.0610 h4         1 6J0       0.026100
     30 HN17         1.5660    -0.8190    -0.2700 hn         1 6J0       0.509000
     31 H18          0.3810     1.3250     1.2430 h1         1 6J0       0.053700
     32 H18A         0.4490     1.8150    -0.4610 h1         1 6J0       0.053700
     33 H19         -0.7980    -0.2540    -1.1120 h1         1 6J0       0.040200
     34 H19A        -0.8630    -0.7600     0.5850 h1         1 6J0       0.040200
     35 H2          -6.2210    -0.2460     1.6930 ha         1 6J0       0.129000
     36 HN20        -2.1320     1.2180     1.0910 hn         1 6J0       0.409000
     37 H21         -3.3330    -0.1490    -1.2470 h1         1 6J0       0.037700
     38 H21A        -3.4640    -0.6750     0.4420 h1         1 6J0       0.037700
     39 H22         -4.4360     2.0200    -0.6510 hc         1 6J0       0.057700
     40 H22A        -4.5720     1.5010     1.0200 hc         1 6J0       0.057700
     41 H4          -9.2340    -1.3730    -1.1740 ha         1 6J0       0.133000
     42 H5          -7.9630    -0.2010    -2.9800 ha         1 6J0       0.119000
     43 H6          -5.8230     0.9470    -2.4460 ha         1 6J0       0.119000
@<TRIPOS>BOND
     1     1     2 2   
     2     1     5 1   
     3     2     3 1   
     4     2    25 1   
     5     3     4 1   
     6     3     8 1   
     7     4     5 2   
     8     4    26 1   
     9     5    27 1   
    10     6    16 ar  
    11     6    19 1   
    12     6    23 ar  
    13     7     8 ar  
    14     7    12 ar  
    15     8     9 ar  
    16     9    10 ar  
    17    10    11 ar  
    18    10    13 1   
    19    11    12 ar  
    20    11    28 1   
    21    12    29 1   
    22    13    14 1   
    23    13    30 1   
    24    14    15 1   
    25    14    31 1   
    26    14    32 1   
    27    15    17 1   
    28    15    33 1   
    29    15    34 1   
    30    16    20 ar  
    31    16    35 1   
    32    17    18 1   
    33    17    36 1   
    34    18    19 1   
    35    18    37 1   
    36    18    38 1   
    37    19    39 1   
    38    19    40 1   
    39    20    21 ar  
    40    20    24 1   
    41    21    22 ar  
    42    21    41 1   
    43    22    23 ar  
    44    22    42 1   
    45    23    43 1   
@<TRIPOS>SUBSTRUCTURE
     1 6J0         1 TEMP              0 ****  ****    0 ROOT
