@<TRIPOS>MOLECULE
6J0
   43    45     1     0     0
SMALL
bcc


@<TRIPOS>ATOM
      1 N01          7.0930    -2.6020    -0.1970 nc         1 6J0      -0.673000
      2 C02          5.9490    -1.9880    -0.1420 cd         1 6J0       0.429400
      3 N03          6.1090    -0.6370    -0.0460 na         1 6J0      -0.240700
      4 C04          7.4630    -0.3940    -0.0410 cd         1 6J0      -0.220600
      5 C05          8.0470    -1.6160    -0.1340 cc         1 6J0       0.288200
      6 C1          -5.7110     0.4080    -0.2870 ca         1 6J0      -0.056300
      7 N11          5.4780     1.5750     0.1220 nb         1 6J0      -0.762000
      8 C12          5.0870     0.3200     0.0340 ca         1 6J0       0.807500
      9 N13          3.8620    -0.1530     0.0120 nb         1 6J0      -0.825000
     10 C14          2.8650     0.7390     0.0840 ca         1 6J0       0.747200
     11 C15          3.1540     2.1160     0.1820 ca         1 6J0      -0.459600
     12 C16          4.4800     2.4620     0.1960 ca         1 6J0       0.491200
     13 N17          1.6200     0.2570     0.0540 nu         1 6J0      -0.872900
     14 C18          0.4260     1.0670     0.1390 c3         1 6J0       0.228800
     15 C19         -0.8090     0.1890     0.0080 c3         1 6J0       0.143800
     16 C2          -6.3630    -0.2250     0.7690 ca         1 6J0      -0.170000
     17 N20         -2.0010     1.0020     0.1110 n7         1 6J0      -0.808200
     18 C21         -3.2220     0.2470    -0.0890 c3         1 6J0       0.160800
     19 C22         -4.4390     1.1690    -0.0470 c3         1 6J0      -0.036100
     20 C3          -7.5080    -0.9550     0.5160 ca         1 6J0       0.136900
     21 C4          -8.0410    -1.0870    -0.7510 ca         1 6J0      -0.168000
     22 C5          -7.3870    -0.4550    -1.8000 ca         1 6J0      -0.100000
     23 C6          -6.2350     0.2850    -1.5720 ca         1 6J0      -0.141000
     24 F7          -8.1270    -1.5560     1.5470 f          1 6J0      -0.144900
     25 H02          4.9750    -2.4490    -0.1680 h5         1 6J0       0.070100
     26 H04          7.8670     0.6000     0.0280 h4         1 6J0       0.194000
     27 H05          9.1020    -1.8410    -0.1600 h4         1 6J0       0.039100
     28 H15          2.3830     2.8700     0.2460 ha         1 6J0       0.156000
     29 H16          4.7690     3.5030     0.2720 h4         1 6J0       0.026100
     30 HN17         1.5270    -0.7460     0.0230 hn         1 6J0       0.453800
     31 H18          0.3960     1.6040     1.0940 h1         1 6J0       0.053700
     32 H18A         0.4160     1.8160    -0.6560 h1         1 6J0       0.053700
     33 H19         -0.8010    -0.2940    -0.9740 h1         1 6J0       0.040200
     34 H19A        -0.7680    -0.6180     0.7560 h1         1 6J0       0.040200
     35 H2          -5.9840    -0.1440     1.7810 ha         1 6J0       0.147000
     36 HN20        -2.0290     1.4290     1.0310 hn         1 6J0       0.353800
     37 H21         -3.1740    -0.2350    -1.0700 h1         1 6J0       0.037700
     38 H21A        -3.3490    -0.5610     0.6480 h1         1 6J0       0.037700
     39 H22         -4.3190     1.9460    -0.8040 hc         1 6J0       0.057700
     40 H22A        -4.4790     1.6690     0.9250 hc         1 6J0       0.057700
     41 H4          -8.9420    -1.6640    -0.9140 ha         1 6J0       0.151000
     42 H5          -7.7850    -0.5400    -2.8020 ha         1 6J0       0.137000
     43 H6          -5.7390     0.7770    -2.4000 ha         1 6J0       0.137000
@<TRIPOS>BOND
     1     1     2 2   
     2     1     5 1   
     3     2     3 1   
     4     2    25 1   
     5     3     4 1   
     6     3     8 1   
     7     4     5 2   
     8     4    26 1   
     9     5    27 1   
    10     6    16 ar  
    11     6    19 1   
    12     6    23 ar  
    13     7     8 ar  
    14     7    12 ar  
    15     8     9 ar  
    16     9    10 ar  
    17    10    11 ar  
    18    10    13 1   
    19    11    12 ar  
    20    11    28 1   
    21    12    29 1   
    22    13    14 1   
    23    13    30 1   
    24    14    15 1   
    25    14    31 1   
    26    14    32 1   
    27    15    17 1   
    28    15    33 1   
    29    15    34 1   
    30    16    20 ar  
    31    16    35 1   
    32    17    18 1   
    33    17    36 1   
    34    18    19 1   
    35    18    37 1   
    36    18    38 1   
    37    19    39 1   
    38    19    40 1   
    39    20    21 ar  
    40    20    24 1   
    41    21    22 ar  
    42    21    41 1   
    43    22    23 ar  
    44    22    42 1   
    45    23    43 1   
@<TRIPOS>SUBSTRUCTURE
     1 6J0         1 TEMP              0 ****  ****    0 ROOT
