@<TRIPOS>MOLECULE
6J1
   20    20     1     0     0
SMALL
abcg2


@<TRIPOS>ATOM
      1 O10          3.4060    -0.0490     0.0520 o          1 6J1      -0.388750
      2 C01          0.0040     3.6390    -0.0250 c3         1 6J1      -0.043800
      3 C02         -0.0130     2.1400    -0.0040 ca         1 6J1      -0.133300
      4 C03         -1.2180     1.4430    -0.0000 ca         1 6J1       0.029500
      5 C04         -1.2510     0.0650     0.0560 ca         1 6J1      -0.277700
      6 C05         -0.0830    -0.7170     0.0760 ca         1 6J1       0.291100
      7 C06          1.1250     0.0090     0.0480 ca         1 6J1      -0.277700
      8 C07          1.1510     1.4000     0.0170 ca         1 6J1       0.029500
      9 N08          2.3870    -0.6860     0.0440 no         1 6J1       0.705700
     10 O09          2.3720    -1.9100     0.0340 o          1 6J1      -0.388750
     11 N12         -2.5540    -0.5740     0.0830 no         1 6J1       0.705700
     12 O13         -3.4390    -0.0520    -0.5540 o          1 6J1      -0.388750
     13 O14         -2.6900    -1.5680     0.7530 o          1 6J1      -0.388750
     14 H011        -0.2850     4.0450     0.9450 hc         1 6J1       0.054700
     15 H013         0.9960     4.0190    -0.2630 hc         1 6J1       0.054700
     16 H012        -0.6940     4.0290    -0.7640 hc         1 6J1       0.054700
     17 H031        -2.1490     1.9950    -0.0260 ha         1 6J1       0.157000
     18 H071         2.1040     1.9110     0.0030 ha         1 6J1       0.157000
     19 H111         0.7300    -2.4010     0.0480 ho         1 6J1       0.532000
     20 O11         -0.1750    -2.0280     0.0780 oh         1 6J1      -0.483100
@<TRIPOS>BOND
     1     1     9 1   
     2     2     3 1   
     3     2    14 1   
     4     2    15 1   
     5     2    16 1   
     6     3     4 ar  
     7     3     8 ar  
     8     4     5 ar  
     9     4    17 1   
    10     5     6 ar  
    11     5    11 1   
    12     6     7 ar  
    13     6    20 1   
    14     7     8 ar  
    15     7     9 1   
    16     8    18 1   
    17     9    10 1   
    18    11    12 1   
    19    11    13 1   
    20    19    20 1   
@<TRIPOS>SUBSTRUCTURE
     1 6J1         1 TEMP              0 ****  ****    0 ROOT
