@<TRIPOS>MOLECULE
6J1
   20    20     1     0     0
SMALL
No Charge or Current Charge


@<TRIPOS>ATOM
      1 O10          3.5080    -0.0670     0.0040 o          1 6J1      -0.388750
      2 C01          0.0030     3.6610    -0.0040 c3         1 6J1      -0.043800
      3 C02         -0.0310     2.1380     0.0070 ca         1 6J1      -0.133300
      4 C03         -1.2590     1.4590    -0.0080 ca         1 6J1       0.029500
      5 C04         -1.2890     0.0520     0.0120 ca         1 6J1      -0.277700
      6 C05         -0.0920    -0.6890     0.0320 ca         1 6J1       0.291100
      7 C06          1.1560    -0.0110     0.0510 ca         1 6J1      -0.277700
      8 C07          1.1670     1.4060     0.0410 ca         1 6J1       0.029500
      9 N08          2.4700    -0.7350     0.0730 no         1 6J1       0.705700
     10 O09          2.4620    -1.9700     0.1630 o          1 6J1      -0.388750
     11 N12         -2.6030    -0.6320     0.0030 no         1 6J1       0.705700
     12 O13         -3.4640    -0.1910    -0.7690 o          1 6J1      -0.388750
     13 O14         -2.8470    -1.4240     0.9220 o          1 6J1      -0.388750
     14 H011         0.0520     4.0580     1.0170 hc         1 6J1       0.054700
     15 H013         0.8750     4.0390    -0.5520 hc         1 6J1       0.054700
     16 H012        -0.8900     4.0810    -0.4830 hc         1 6J1       0.054700
     17 H031        -2.1880     2.0280    -0.0260 ha         1 6J1       0.157000
     18 H071         2.1080     1.9560     0.0590 ha         1 6J1       0.157000
     19 H111         0.7520    -2.4000     0.0590 ho         1 6J1       0.532000
     20 O11         -0.1660    -2.0510    -0.0000 oh         1 6J1      -0.483100
@<TRIPOS>BOND
     1     1     9 1   
     2     2     3 1   
     3     2    14 1   
     4     2    15 1   
     5     2    16 1   
     6     3     4 ar  
     7     3     8 ar  
     8     4     5 ar  
     9     4    17 1   
    10     5     6 ar  
    11     5    11 1   
    12     6     7 ar  
    13     6    20 1   
    14     7     8 ar  
    15     7     9 1   
    16     8    18 1   
    17     9    10 1   
    18    11    12 1   
    19    11    13 1   
    20    19    20 1   
@<TRIPOS>SUBSTRUCTURE
     1 6J1         1 TEMP              0 ****  ****    0 ROOT
