@<TRIPOS>MOLECULE
6J3
   28    29     1     0     0
SMALL
abcg2


@<TRIPOS>ATOM
      1 O01          1.6480    -2.3190     0.3230 o          1 6J3      -0.708500
      2 C02          2.7660    -1.7490     0.2280 c          1 6J3       0.727600
      3 O03          3.8690    -2.3090     0.2890 o          1 6J3      -0.708500
      4 C04          2.7610    -0.2440     0.0160 ca         1 6J3      -0.241600
      5 C05          3.9670     0.4150    -0.1390 ca         1 6J3      -0.031000
      6 C06          4.0140     1.7890    -0.3490 ca         1 6J3      -0.244000
      7 C07          2.8090     2.4590    -0.3940 ca         1 6J3       0.356900
      8 N08          1.6300     1.8670    -0.2490 nb         1 6J3      -0.780000
      9 C09          1.5840     0.5530    -0.0480 ca         1 6J3       0.624900
     10 N10          0.3730    -0.0670     0.0850 nu         1 6J3      -0.963900
     11 C11         -0.9100     0.4480     0.1230 ca         1 6J3       0.363000
     12 C12         -1.9690    -0.4730    -0.0760 ca         1 6J3      -0.129300
     13 C13         -1.6590    -1.9110    -0.3730 c3         1 6J3      -0.050800
     14 C14         -3.2680     0.0130     0.0150 ca         1 6J3       0.152000
     15 CL          -4.6240    -1.0630    -0.1950 cl         1 6J3      -0.253000
     16 C16         -3.5670     1.3450     0.2670 ca         1 6J3      -0.174000
     17 C17         -2.5150     2.2260     0.4430 ca         1 6J3      -0.088000
     18 C18         -1.2020     1.7920     0.3770 ca         1 6J3      -0.162000
     19 H051         4.8810    -0.1620    -0.0950 ha         1 6J3       0.133000
     20 H061         4.9500     2.3150    -0.4720 ha         1 6J3       0.100000
     21 H071         2.7820     3.5320    -0.5550 h4         1 6J3      -0.012900
     22 H101         0.5120    -1.0830     0.1880 hn         1 6J3       0.575000
     23 H133        -1.2420    -2.4210     0.4990 hc         1 6J3       0.053033
     24 H131        -2.5410    -2.4650    -0.6780 hc         1 6J3       0.053033
     25 H132        -0.9250    -1.9970    -1.1760 hc         1 6J3       0.053033
     26 H161        -4.5930     1.6790     0.3270 ha         1 6J3       0.110000
     27 H171        -2.7200     3.2690     0.6420 ha         1 6J3       0.098000
     28 H181        -0.4000     2.4960     0.5190 ha         1 6J3       0.146000
@<TRIPOS>BOND
     1     1     2 1   
     2     2     3 1   
     3     2     4 1   
     4     4     5 ar  
     5     4     9 ar  
     6     5     6 ar  
     7     5    19 1   
     8     6     7 ar  
     9     6    20 1   
    10     7     8 ar  
    11     7    21 1   
    12     8     9 ar  
    13     9    10 1   
    14    10    11 1   
    15    10    22 1   
    16    11    12 ar  
    17    11    18 ar  
    18    12    13 1   
    19    12    14 ar  
    20    13    23 1   
    21    13    24 1   
    22    13    25 1   
    23    14    15 1   
    24    14    16 ar  
    25    16    17 ar  
    26    16    26 1   
    27    17    18 ar  
    28    17    27 1   
    29    18    28 1   
@<TRIPOS>SUBSTRUCTURE
     1 6J3         1 TEMP              0 ****  ****    0 ROOT
