@<TRIPOS>MOLECULE
6J3
   28    29     1     0     0
SMALL
No Charge or Current Charge


@<TRIPOS>ATOM
      1 O01          1.7960    -2.3180     0.4360 o          1 6J3      -0.708500
      2 C02          2.8080    -1.6510     0.6010 c          1 6J3       0.727600
      3 O03          3.8230    -2.0950     1.1150 o          1 6J3      -0.708500
      4 C04          2.8250    -0.2280     0.1230 ca         1 6J3      -0.241600
      5 C05          4.0500     0.4110    -0.1660 ca         1 6J3      -0.031000
      6 C06          4.0180     1.7360    -0.6210 ca         1 6J3      -0.244000
      7 C07          2.7810     2.3760    -0.7730 ca         1 6J3       0.356900
      8 N08          1.6090     1.7740    -0.4950 nb         1 6J3      -0.780000
      9 C09          1.6410     0.5130    -0.0460 ca         1 6J3       0.624900
     10 N10          0.4030    -0.0290     0.1930 nu         1 6J3      -0.963900
     11 C11         -0.9160     0.4320     0.2200 ca         1 6J3       0.363000
     12 C12         -1.9740    -0.4370    -0.1560 ca         1 6J3      -0.129300
     13 C13         -1.6880    -1.8630    -0.6550 c3         1 6J3      -0.050800
     14 C14         -3.3080     0.0310    -0.0590 ca         1 6J3       0.152000
     15 Cl          -4.6840    -0.9940    -0.4740 cl         1 6J3      -0.253000
     16 C16         -3.5810     1.3310     0.3920 ca         1 6J3      -0.174000
     17 C17         -2.5350     2.1830     0.7650 ca         1 6J3      -0.088000
     18 C18         -1.2110     1.7280     0.6870 ca         1 6J3      -0.162000
     19 H051         5.0010    -0.1070    -0.0510 ha         1 6J3       0.133000
     20 H061         4.9370     2.2640    -0.8580 ha         1 6J3       0.100000
     21 H071         2.7260     3.4040    -1.1300 h4         1 6J3      -0.012900
     22 H101         0.4990    -1.0470     0.2680 hn         1 6J3       0.575000
     23 H133        -1.6720    -2.5730     0.1800 hc         1 6J3       0.053033
     24 H131        -2.4390    -2.2110    -1.3730 hc         1 6J3       0.053033
     25 H132        -0.7280    -1.9380    -1.1780 hc         1 6J3       0.053033
     26 H161        -4.6100     1.6750     0.4620 ha         1 6J3       0.110000
     27 H171        -2.7480     3.1870     1.1270 ha         1 6J3       0.098000
     28 H181        -0.4100     2.3840     1.0100 ha         1 6J3       0.146000
@<TRIPOS>BOND
     1     1     2 1   
     2     2     3 1   
     3     2     4 1   
     4     4     5 ar  
     5     4     9 ar  
     6     5     6 ar  
     7     5    19 1   
     8     6     7 ar  
     9     6    20 1   
    10     7     8 ar  
    11     7    21 1   
    12     8     9 ar  
    13     9    10 1   
    14    10    11 1   
    15    10    22 1   
    16    11    12 ar  
    17    11    18 ar  
    18    12    13 1   
    19    12    14 ar  
    20    13    23 1   
    21    13    24 1   
    22    13    25 1   
    23    14    15 1   
    24    14    16 ar  
    25    16    17 ar  
    26    16    26 1   
    27    17    18 ar  
    28    17    27 1   
    29    18    28 1   
@<TRIPOS>SUBSTRUCTURE
     1 6J3         1 TEMP              0 ****  ****    0 ROOT
