@<TRIPOS>MOLECULE
6J5
   21    22     1     0     0
SMALL
No Charge or Current Charge


@<TRIPOS>ATOM
      1 Cl1          1.6560    -2.2130     0.0230 cl         1 6J5      -0.188000
      2 C2           2.1630    -0.5220     0.0140 ca         1 6J5       0.085000
      3 C3           3.5360    -0.2210     0.0080 ca         1 6J5      -0.066000
      4 C4           3.9640     1.1170     0.0000 ca         1 6J5      -0.131000
      5 C5           3.0190     2.1570    -0.0020 ca         1 6J5      -0.067000
      6 C6           1.6440     1.8620     0.0040 ca         1 6J5      -0.184000
      7 C7           1.2070     0.5170     0.0120 ca         1 6J5       0.144100
      8 O8          -0.1350     0.1820     0.0180 os         1 6J5      -0.355100
      9 C9          -1.1860     1.1760     0.0160 c3         1 6J5       0.138300
     10 C10         -2.5340     0.4940     0.0240 cc         1 6J5       0.385800
     11 N11         -2.7580    -0.8530     0.0300 na         1 6J5      -0.192700
     12 N12         -4.0900    -1.1130     0.0350 nc         1 6J5      -0.198800
     13 N13         -4.6510     0.0660     0.0330 nd         1 6J5      -0.041000
     14 N14         -3.7170     1.0760     0.0250 nd         1 6J5      -0.387000
     15 H3           4.2670    -1.0260     0.0100 ha         1 6J5       0.134000
     16 H4           5.0270     1.3490    -0.0040 ha         1 6J5       0.125000
     17 H5           3.3530     3.1930    -0.0070 ha         1 6J5       0.121000
     18 H6           0.9380     2.6870     0.0020 ha         1 6J5       0.123000
     19 H9          -1.1150     1.8180     0.9030 h1         1 6J5       0.074700
     20 H9A         -1.1210     1.8100    -0.8770 h1         1 6J5       0.074700
     21 HN11        -2.0540    -1.5810     0.0300 hn         1 6J5       0.403000
@<TRIPOS>BOND
     1     1     2 1   
     2     2     3 ar  
     3     2     7 ar  
     4     3     4 ar  
     5     3    15 1   
     6     4     5 ar  
     7     4    16 1   
     8     5     6 ar  
     9     5    17 1   
    10     6     7 ar  
    11     6    18 1   
    12     7     8 1   
    13     8     9 1   
    14     9    10 1   
    15     9    19 1   
    16     9    20 1   
    17    10    11 1   
    18    10    14 2   
    19    11    12 1   
    20    11    21 1   
    21    12    13 2   
    22    13    14 1   
@<TRIPOS>SUBSTRUCTURE
     1 6J5         1 TEMP              0 ****  ****    0 ROOT
