@<TRIPOS>MOLECULE
6J5
   21    22     1     0     0
SMALL
abcg2


@<TRIPOS>ATOM
      1 CL1          1.5020    -2.1180     0.0430 cl         1 6J5      -0.188000
      2 C2           2.0760    -0.4870     0.0250 ca         1 6J5       0.085000
      3 C3           3.4330    -0.2260     0.0230 ca         1 6J5      -0.066000
      4 C4           3.8840     1.0880     0.0070 ca         1 6J5      -0.131000
      5 C5           2.9670     2.1250    -0.0060 ca         1 6J5      -0.067000
      6 C6           1.6020     1.8660    -0.0040 ca         1 6J5      -0.184000
      7 C7           1.1440     0.5540     0.0120 ca         1 6J5       0.144100
      8 O8          -0.1520     0.1940     0.0170 os         1 6J5      -0.355100
      9 C9          -1.1410     1.1940     0.0080 c3         1 6J5       0.138300
     10 C10         -2.4460     0.4840     0.0330 cc         1 6J5       0.385800
     11 N11         -2.6150    -0.8350    -0.0080 na         1 6J5      -0.192700
     12 N12         -3.9100    -1.1000     0.0290 nc         1 6J5      -0.198800
     13 N13         -4.5060     0.0230     0.0900 nd         1 6J5      -0.041000
     14 N14         -3.6330     1.0330     0.0960 nd         1 6J5      -0.387000
     15 H3           4.1350    -1.0490     0.0330 ha         1 6J5       0.134000
     16 H4           4.9460     1.2890     0.0060 ha         1 6J5       0.125000
     17 H5           3.3050     3.1530    -0.0200 ha         1 6J5       0.121000
     18 H6           0.9090     2.6970    -0.0150 ha         1 6J5       0.123000
     19 H9          -1.0710     1.8520     0.8790 h1         1 6J5       0.074700
     20 H9A         -1.0840     1.8170    -0.8910 h1         1 6J5       0.074700
     21 HN11        -1.9310    -1.5770    -0.0600 hn         1 6J5       0.403000
@<TRIPOS>BOND
     1     1     2 1   
     2     2     3 ar  
     3     2     7 ar  
     4     3     4 ar  
     5     3    15 1   
     6     4     5 ar  
     7     4    16 1   
     8     5     6 ar  
     9     5    17 1   
    10     6     7 ar  
    11     6    18 1   
    12     7     8 1   
    13     8     9 1   
    14     9    10 1   
    15     9    19 1   
    16     9    20 1   
    17    10    11 1   
    18    10    14 2   
    19    11    12 1   
    20    11    21 1   
    21    12    13 2   
    22    13    14 1   
@<TRIPOS>SUBSTRUCTURE
     1 6J5         1 TEMP              0 ****  ****    0 ROOT
