@<TRIPOS>MOLECULE
6J6
   32    34     1     0     0
SMALL
bcc


@<TRIPOS>ATOM
      1 CAN         -0.1770     1.4080    -0.7820 c6         1 6J6      -0.214400
      2 CAM         -1.6480     1.7010    -0.6360 c          1 6J6       0.591700
      3 OAO         -2.1250     2.7860    -0.8930 o          1 6J6      -0.512100
      4 CAL         -2.4690     0.5520    -0.2120 ca         1 6J6      -0.224600
      5 CAS         -3.8600     0.6670    -0.1460 ca         1 6J6      -0.076000
      6 CAR         -4.6410    -0.4240     0.1820 ca         1 6J6       0.094100
      7 OAT         -5.9810    -0.2670     0.2260 oh         1 6J6      -0.492100
      8 CAQ         -4.0190    -1.6480     0.4500 ca         1 6J6      -0.162000
      9 CAP         -2.6440    -1.7700     0.3990 ca         1 6J6      -0.134000
     10 CAK         -1.8550    -0.6720     0.0690 ca         1 6J6       0.141100
     11 OAJ         -0.5180    -0.8480     0.0280 os         1 6J6      -0.313900
     12 CAI          0.2750     0.3280     0.1890 c6         1 6J6       0.212400
     13 CAC          1.7120    -0.0530    -0.0100 ca         1 6J6      -0.096300
     14 CAD          2.6510     0.2500     0.9720 ca         1 6J6      -0.159000
     15 CAE          3.9910    -0.0530     0.7920 ca         1 6J6       0.042100
     16 OAH          4.9550     0.2180     1.7000 oh         1 6J6      -0.517100
     17 CAF          4.4110    -0.6800    -0.3870 ca         1 6J6       0.134100
     18 OAG          5.7060    -0.9940    -0.6010 oh         1 6J6      -0.492100
     19 CAA          3.4720    -0.9880    -1.3610 ca         1 6J6      -0.144000
     20 CAB          2.1330    -0.6760    -1.1780 ca         1 6J6      -0.092000
     21 H1          -0.0020     1.0870    -1.8160 hc         1 6J6       0.086200
     22 H2           0.4040     2.3180    -0.6260 hc         1 6J6       0.086200
     23 H3          -4.3250     1.6190    -0.3690 ha         1 6J6       0.166000
     24 H4          -6.4090    -1.0910     0.4830 ho         1 6J6       0.426000
     25 H5          -4.6140    -2.5150     0.7100 ha         1 6J6       0.135000
     26 H6          -2.1770    -2.7210     0.6210 ha         1 6J6       0.151000
     27 H7           0.1340     0.6960     1.2140 h1         1 6J6       0.053700
     28 H8           2.3330     0.7320     1.8910 ha         1 6J6       0.132000
     29 H9           4.5850     0.6510     2.4780 ho         1 6J6       0.437000
     30 H10          6.2500    -0.7030     0.1390 ho         1 6J6       0.444000
     31 H11          3.8000    -1.4740    -2.2710 ha         1 6J6       0.153000
     32 H12          1.4240    -0.9200    -1.9590 ha         1 6J6       0.145000
@<TRIPOS>BOND
     1     1     2 1   
     2     1    12 1   
     3     1    21 1   
     4     1    22 1   
     5     2     3 2   
     6     2     4 1   
     7     4     5 ar  
     8     4    10 ar  
     9     5     6 ar  
    10     5    23 1   
    11     6     7 1   
    12     6     8 ar  
    13     7    24 1   
    14     8     9 ar  
    15     8    25 1   
    16     9    10 ar  
    17     9    26 1   
    18    10    11 1   
    19    11    12 1   
    20    12    13 1   
    21    12    27 1   
    22    13    14 ar  
    23    13    20 ar  
    24    14    15 ar  
    25    14    28 1   
    26    15    16 1   
    27    15    17 ar  
    28    16    29 1   
    29    17    18 1   
    30    17    19 ar  
    31    18    30 1   
    32    19    20 ar  
    33    19    31 1   
    34    20    32 1   
@<TRIPOS>SUBSTRUCTURE
     1 6J6         1 TEMP              0 ****  ****    0 ROOT
