@<TRIPOS>MOLECULE
6J6
   32    34     1     0     0
SMALL
No Charge or Current Charge


@<TRIPOS>ATOM
      1 CAN         -0.1750     1.4530    -0.7650 c6         1 6J6      -0.214400
      2 CAM         -1.6390     1.7600    -0.4990 c          1 6J6       0.591700
      3 OAO         -2.0650     2.9080    -0.5060 o          1 6J6      -0.512100
      4 CAL         -2.5020     0.5790    -0.1740 ca         1 6J6      -0.224600
      5 CAS         -3.9100     0.6850    -0.1520 ca         1 6J6      -0.058000
      6 CAR         -4.7010    -0.4450     0.1240 ca         1 6J6       0.094100
      7 OAT         -6.0610    -0.3330     0.1380 oh         1 6J6      -0.531100
      8 CAQ         -4.0910    -1.6860     0.3780 ca         1 6J6      -0.144000
      9 CAP         -2.6890    -1.7920     0.3640 ca         1 6J6      -0.116000
     10 CAK         -1.8960    -0.6630     0.1020 ca         1 6J6       0.141100
     11 OAJ         -0.5250    -0.7980     0.1100 os         1 6J6      -0.337100
     12 CAI          0.3010     0.3790     0.2220 c6         1 6J6       0.235600
     13 CAC          1.7640    -0.0210    -0.0020 ca         1 6J6      -0.096300
     14 CAD          2.7470     0.3360     0.9450 ca         1 6J6      -0.141000
     15 CAE          4.0910    -0.0250     0.7410 ca         1 6J6       0.042100
     16 OAH          5.0460     0.3220     1.6610 oh         1 6J6      -0.556100
     17 CAF          4.4560    -0.7460    -0.4150 ca         1 6J6       0.134100
     18 OAG          5.7620    -1.0910    -0.6050 oh         1 6J6      -0.531100
     19 CAA          3.4840    -1.1030    -1.3600 ca         1 6J6      -0.126000
     20 CAB          2.1410    -0.7420    -1.1550 ca         1 6J6      -0.074000
     21 H1          -0.1220     1.0070    -1.7650 hc         1 6J6       0.086200
     22 H2           0.4280     2.3690    -0.7410 hc         1 6J6       0.086200
     23 H3          -4.3960     1.6370    -0.3580 ha         1 6J6       0.148000
     24 H4          -6.4480    -1.2120     0.3450 ho         1 6J6       0.465000
     25 H5          -4.6940    -2.5660     0.5880 ha         1 6J6       0.117000
     26 H6          -2.2130    -2.7490     0.5660 ha         1 6J6       0.133000
     27 H7           0.1900     0.7700     1.2450 h1         1 6J6       0.053700
     28 H8           2.4630     0.8930     1.8350 ha         1 6J6       0.114000
     29 H9           4.6170     0.8150     2.3960 ho         1 6J6       0.476000
     30 H10          6.2480    -0.7390     0.1750 ho         1 6J6       0.483000
     31 H11          3.7700    -1.6600    -2.2500 ha         1 6J6       0.135000
     32 H12          1.3920    -1.0260    -1.8920 ha         1 6J6       0.127000
@<TRIPOS>BOND
     1     1     2 1   
     2     1    12 1   
     3     1    21 1   
     4     1    22 1   
     5     2     3 2   
     6     2     4 1   
     7     4     5 ar  
     8     4    10 ar  
     9     5     6 ar  
    10     5    23 1   
    11     6     7 1   
    12     6     8 ar  
    13     7    24 1   
    14     8     9 ar  
    15     8    25 1   
    16     9    10 ar  
    17     9    26 1   
    18    10    11 1   
    19    11    12 1   
    20    12    13 1   
    21    12    27 1   
    22    13    14 ar  
    23    13    20 ar  
    24    14    15 ar  
    25    14    28 1   
    26    15    16 1   
    27    15    17 ar  
    28    16    29 1   
    29    17    18 1   
    30    17    19 ar  
    31    18    30 1   
    32    19    20 ar  
    33    19    31 1   
    34    20    32 1   
@<TRIPOS>SUBSTRUCTURE
     1 6J6         1 TEMP              0 ****  ****    0 ROOT
