@<TRIPOS>MOLECULE
6J7
   35    38     1     0     0
SMALL
No Charge or Current Charge


@<TRIPOS>ATOM
      1 Br           0.1490     2.2520     1.3840 br         1 6J7      -0.080200
      2 C9           1.5920     1.1610     0.8420 cc         1 6J7       0.454700
      3 N4           2.8590     1.5370     0.9630 nd         1 6J7      -0.551000
      4 C8           3.6000     0.4960     0.4250 cd         1 6J7       0.085500
      5 C7           5.0720     0.3220     0.2790 c          1 6J7       0.524500
      6 O6           5.9240     1.1250     0.6340 o          1 6J7      -0.501000
      7 N3           5.3950    -0.8660    -0.3090 ns         1 6J7      -0.460400
      8 C6           4.4780    -1.7700    -0.7020 cd         1 6J7       0.759800
      9 N2           4.9190    -2.8790    -1.2580 nv         1 6J7      -1.057200
     10 N1           3.1760    -1.6790    -0.6000 nc         1 6J7      -0.725100
     11 C5           2.7610    -0.4970    -0.0190 cc         1 6J7       0.171400
     12 N            1.4770    -0.0840     0.2360 na         1 6J7      -0.176500
     13 C4           0.2670    -0.8750    -0.0240 c5         1 6J7       0.257300
     14 C2          -0.7920    -1.1050     1.1430 c5         1 6J7       0.150300
     15 O4          -1.0610    -2.4990     1.3730 oh         1 6J7      -0.679000
     16 O5          -0.4670    -0.3210    -1.1560 os         1 6J7      -0.420000
     17 C3          -1.8160    -0.7750    -0.9770 c5         1 6J7       0.068300
     18 C           -2.8960    -0.1430    -1.8820 c6         1 6J7       0.228600
     19 O1          -4.1940    -0.5490    -1.3770 os         1 6J7      -0.599400
     20 C1          -2.0290    -0.4150     0.5010 c5         1 6J7       0.152300
     21 O3          -3.2840    -1.0090     0.9080 os         1 6J7      -0.533400
     22 P           -4.5170    -0.2620     0.1750 p5         1 6J7       1.358200
     23 O           -4.8120     1.1400     0.5650 o          1 6J7      -0.564000
     24 O2          -5.6770    -1.3170     0.3760 oh         1 6J7      -0.724400
     25 H10          6.3750    -1.0640    -0.4200 hn         1 6J7       0.325500
     26 H8           5.7700    -2.8030    -1.8010 hn         1 6J7       0.514000
     27 H9           4.1850    -3.4230    -1.6930 hn         1 6J7       0.514000
     28 H7           0.6410    -1.8650    -0.3130 h2         1 6J7       0.106700
     29 H3          -0.4940    -0.6080     2.0770 h1         1 6J7       0.074700
     30 HO4         -2.0350    -2.5450     1.5320 ho         1 6J7       0.515000
     31 H6          -1.8480    -1.8630    -1.1350 h1         1 6J7       0.088700
     32 H1          -2.8190     0.9540    -1.8750 h1         1 6J7       0.077200
     33 H           -2.7800    -0.4950    -2.9170 h1         1 6J7       0.077200
     34 H5          -2.0400     0.6710     0.6720 h1         1 6J7       0.076700
     35 H2          -5.2680    -1.9450    -0.2460 ho         1 6J7       0.492000
@<TRIPOS>BOND
     1     1     2 1   
     2     2     3 2   
     3     2    12 1   
     4     3     4 1   
     5     4     5 1   
     6     4    11 2   
     7     5     6 2   
     8     5     7 1   
     9     7     8 1   
    10     7    25 1   
    11     8     9 1   
    12     8    10 2   
    13     9    26 1   
    14     9    27 1   
    15    10    11 1   
    16    11    12 1   
    17    12    13 1   
    18    13    14 1   
    19    13    16 1   
    20    13    28 1   
    21    14    15 1   
    22    14    20 1   
    23    14    29 1   
    24    15    30 1   
    25    16    17 1   
    26    17    18 1   
    27    17    20 1   
    28    17    31 1   
    29    18    19 1   
    30    18    32 1   
    31    18    33 1   
    32    19    22 1   
    33    20    21 1   
    34    20    34 1   
    35    21    22 1   
    36    22    23 2   
    37    22    24 1   
    38    24    35 1   
@<TRIPOS>SUBSTRUCTURE
     1 6J7         1 TEMP              0 ****  ****    0 ROOT
