@<TRIPOS>MOLECULE
6J7
   35    38     1     0     0
SMALL
abcg2


@<TRIPOS>ATOM
      1 BR           0.1330     2.4670     0.6850 br         1 6J7      -0.080200
      2 C9           1.5680     1.3260     0.4190 cc         1 6J7       0.454700
      3 N4           2.7920     1.6960     0.5580 nd         1 6J7      -0.551000
      4 C8           3.5270     0.5760     0.2650 cd         1 6J7       0.085500
      5 C7           4.9390     0.3730     0.2540 c          1 6J7       0.524500
      6 O6           5.8240     1.1680     0.5110 o          1 6J7      -0.501000
      7 N3           5.2390    -0.9440    -0.1110 ns         1 6J7      -0.460400
      8 C6           4.3370    -1.9210    -0.4230 cd         1 6J7       0.759800
      9 N2           4.8210    -3.1200    -0.7450 nv         1 6J7      -1.057200
     10 N1           3.0380    -1.7220    -0.4070 nc         1 6J7      -0.725100
     11 C5           2.7020    -0.4780    -0.0620 cc         1 6J7       0.171400
     12 N            1.4240     0.0070     0.0420 na         1 6J7      -0.176500
     13 C4           0.2510    -0.7740    -0.2280 c5         1 6J7       0.257300
     14 C2          -0.7300    -1.0250     0.9710 c5         1 6J7       0.150300
     15 O4          -0.8680    -2.3860     1.2380 oh         1 6J7      -0.679000
     16 O5          -0.4840    -0.1650    -1.2690 os         1 6J7      -0.420000
     17 C3          -1.7990    -0.6370    -1.1150 c5         1 6J7       0.068300
     18 C           -2.8470     0.1380    -1.8800 c6         1 6J7       0.228600
     19 O1          -4.1150    -0.4090    -1.4740 os         1 6J7      -0.599400
     20 C1          -2.0280    -0.4870     0.3810 c5         1 6J7       0.152300
     21 O3          -3.2110    -1.1590     0.7790 os         1 6J7      -0.533400
     22 P           -4.5310    -0.5550     0.0700 p5         1 6J7       1.358200
     23 O           -5.0660     0.6670     0.6970 o          1 6J7      -0.564000
     24 O2          -5.4760    -1.8240     0.0230 oh         1 6J7      -0.724400
     25 H10          6.2250    -1.1740    -0.1440 hn         1 6J7       0.325500
     26 H8           5.8060    -3.3080    -0.8100 hn         1 6J7       0.514000
     27 H9           4.1820    -3.8460    -1.0200 hn         1 6J7       0.514000
     28 H7           0.6220    -1.7540    -0.5480 h2         1 6J7       0.106700
     29 H3          -0.4210    -0.4670     1.8610 h1         1 6J7       0.074700
     30 HO4         -0.1530    -2.6630     1.8200 ho         1 6J7       0.515000
     31 H6          -1.8690    -1.6990    -1.3970 h1         1 6J7       0.088700
     32 H1          -2.7980     1.2070    -1.6610 h1         1 6J7       0.077200
     33 H           -2.7800    -0.0040    -2.9570 h1         1 6J7       0.077200
     34 H5          -2.1040     0.5780     0.6290 h1         1 6J7       0.076700
     35 H2          -6.3420    -1.6830     0.4300 ho         1 6J7       0.492000
@<TRIPOS>BOND
     1     1     2 1   
     2     2     3 2   
     3     2    12 1   
     4     3     4 1   
     5     4     5 1   
     6     4    11 2   
     7     5     6 2   
     8     5     7 1   
     9     7     8 1   
    10     7    25 1   
    11     8     9 1   
    12     8    10 2   
    13     9    26 1   
    14     9    27 1   
    15    10    11 1   
    16    11    12 1   
    17    12    13 1   
    18    13    14 1   
    19    13    16 1   
    20    13    28 1   
    21    14    15 1   
    22    14    20 1   
    23    14    29 1   
    24    15    30 1   
    25    16    17 1   
    26    17    18 1   
    27    17    20 1   
    28    17    31 1   
    29    18    19 1   
    30    18    32 1   
    31    18    33 1   
    32    19    22 1   
    33    20    21 1   
    34    20    34 1   
    35    21    22 1   
    36    22    23 2   
    37    22    24 1   
    38    24    35 1   
@<TRIPOS>SUBSTRUCTURE
     1 6J7         1 TEMP              0 ****  ****    0 ROOT
