@<TRIPOS>MOLECULE
6J8
   45    45     1     0     0
SMALL
bcc


@<TRIPOS>ATOM
      1 C1           1.6950     1.5850     0.7920 c3         1 6J8      -0.233600
      2 C2           1.7200     0.1720     0.2060 c3         1 6J8      -0.001700
      3 C3           3.0980    -0.4520     0.4180 c3         1 6J8      -0.163400
      4 C4           3.3660    -1.6680    -0.4340 c          1 6J8       0.694100
      5 O6           2.1150     2.8510    -1.5640 o          1 6J8      -0.933500
      6 O7           2.3600     4.1860     0.6210 o          1 6J8      -0.933500
      7 C11          4.8750    -3.6180    -0.7650 c3         1 6J8       0.097300
      8 C13          0.6380    -0.7250     0.8170 c3         1 6J8      -0.068400
      9 C14         -0.7850    -0.3960     0.3830 c3         1 6J8      -0.068400
     10 C15         -1.8210    -1.2820     1.0770 c3         1 6J8      -0.037100
     11 C16         -3.2260    -1.0060     0.6200 ca         1 6J8      -0.077300
     12 C17         -3.7200    -1.5740    -0.5560 ca         1 6J8      -0.092000
     13 C18         -4.0680    -0.1530     1.3210 ca         1 6J8      -0.092000
     14 C23         -7.9530     0.5990    -0.0940 c3         1 6J8       0.132700
     15 O12          2.6740    -1.9840    -1.3940 o          1 6J8      -0.622100
     16 N9           4.4670    -2.3950    -0.1220 n          1 6J8      -0.381300
     17 O10          5.1830    -2.0840     1.0050 oh         1 6J8      -0.405100
     18 P5           2.6660     2.8820    -0.1310 p5         1 6J8       1.140700
     19 O8           4.1500     2.4760    -0.0430 o          1 6J8      -0.933500
     20 C19         -4.9980    -1.3050    -1.0100 ca         1 6J8      -0.189500
     21 C21         -5.8330    -0.4460    -0.2910 ca         1 6J8       0.109100
     22 O22         -7.0660    -0.2430    -0.8000 os         1 6J8      -0.330900
     23 C20         -5.3590     0.1320     0.8830 ca         1 6J8      -0.189500
     24 H1           0.6580     1.9360     0.8340 hc         1 6J8       0.007700
     25 H2           2.0290     1.5420     1.8380 hc         1 6J8       0.007700
     26 H3           1.5320     0.2570    -0.8690 hc         1 6J8       0.082700
     27 H4           3.8600     0.3050     0.1960 hc         1 6J8       0.102200
     28 H5           3.2270    -0.6940     1.4770 hc         1 6J8       0.102200
     29 H8           5.8990    -3.5350    -1.1330 h1         1 6J8       0.026700
     30 H9           4.8180    -4.4580    -0.0710 h1         1 6J8       0.026700
     31 H10          4.2210    -3.8170    -1.6080 h1         1 6J8       0.026700
     32 H11          0.8300    -1.7720     0.5600 hc         1 6J8       0.003700
     33 H12          0.7090    -0.6640     1.9100 hc         1 6J8       0.003700
     34 H13         -1.0180     0.6520     0.5910 hc         1 6J8       0.055700
     35 H14         -0.8710    -0.5210    -0.7020 hc         1 6J8       0.055700
     36 H15         -1.5750    -2.3320     0.8890 hc         1 6J8       0.032700
     37 H16         -1.7470    -1.1360     2.1580 hc         1 6J8       0.032700
     38 H17         -3.0910    -2.2470    -1.1270 ha         1 6J8       0.134000
     39 H18         -3.7220     0.3050     2.2400 ha         1 6J8       0.134000
     40 H19         -8.1600     0.2250     0.9120 h1         1 6J8       0.030033
     41 H20         -7.5740     1.6210    -0.0170 h1         1 6J8       0.030033
     42 H21         -8.8820     0.6150    -0.6580 h1         1 6J8       0.030033
     43 H22          5.9160    -1.5230     0.7180 ho         1 6J8       0.404000
     44 H23         -5.3620    -1.7620    -1.9220 ha         1 6J8       0.125000
     45 H24         -5.9730     0.8010     1.4700 ha         1 6J8       0.125000
@<TRIPOS>BOND
     1     1     2 1   
     2     1    18 1   
     3     1    24 1   
     4     1    25 1   
     5     2     3 1   
     6     2     8 1   
     7     2    26 1   
     8     3     4 1   
     9     3    27 1   
    10     3    28 1   
    11     4    15 2   
    12     4    16 1   
    13     5    18 1   
    14     6    18 1   
    15     7    16 1   
    16     7    29 1   
    17     7    30 1   
    18     7    31 1   
    19     8     9 1   
    20     8    32 1   
    21     8    33 1   
    22     9    10 1   
    23     9    34 1   
    24     9    35 1   
    25    10    11 1   
    26    10    36 1   
    27    10    37 1   
    28    11    12 ar  
    29    11    13 ar  
    30    12    20 ar  
    31    12    38 1   
    32    13    23 ar  
    33    13    39 1   
    34    14    22 1   
    35    14    40 1   
    36    14    41 1   
    37    14    42 1   
    38    16    17 1   
    39    17    43 1   
    40    18    19 1   
    41    20    21 ar  
    42    20    44 1   
    43    21    22 1   
    44    21    23 ar  
    45    23    45 1   
@<TRIPOS>SUBSTRUCTURE
     1 6J8         1 TEMP              0 ****  ****    0 ROOT
