@<TRIPOS>MOLECULE
6J8
   45    45     1     0     0
SMALL
No Charge or Current Charge


@<TRIPOS>ATOM
      1 C1           1.6370     1.6510     0.6790 c3         1 6J8      -0.391400
      2 C2           1.7270     0.1890     0.1410 c3         1 6J8      -0.001700
      3 C3           3.1410    -0.4180     0.3730 c3         1 6J8      -0.163400
      4 C4           3.4770    -1.7090    -0.4010 c          1 6J8       0.627100
      5 O6           2.6580     2.6450    -1.6530 o          1 6J8      -0.933500
      6 O7           1.9920     4.2670     0.0490 o          1 6J8      -0.933500
      7 C11          5.0110    -3.7260    -0.6310 c3         1 6J8       0.097300
      8 C13          0.6360    -0.7360     0.7630 c3         1 6J8      -0.068400
      9 C14         -0.8240    -0.4000     0.3680 c3         1 6J8      -0.068400
     10 C15         -1.8450    -1.4270     0.9050 c3         1 6J8      -0.037100
     11 C16         -3.2730    -1.0770     0.5090 ca         1 6J8      -0.077300
     12 C17         -3.8190    -1.5710    -0.6900 ca         1 6J8      -0.074000
     13 C18         -4.0570    -0.2500     1.3360 ca         1 6J8      -0.074000
     14 C23         -8.0890     0.7010     0.1310 c3         1 6J8       0.155900
     15 O12          2.8200    -2.0710    -1.3710 o          1 6J8      -0.622100
     16 N9           4.6060    -2.4650     0.0230 n          1 6J8      -0.314300
     17 O10          5.4290    -2.0400     1.1330 oh         1 6J8      -0.444100
     18 P5           2.6360     2.9440    -0.1930 p5         1 6J8       1.298500
     19 O8           4.0190     2.9440     0.3620 o          1 6J8      -0.933500
     20 C19         -5.1370    -1.2440    -1.0560 ca         1 6J8      -0.171500
     21 C21         -5.9210    -0.4210    -0.2310 ca         1 6J8       0.109100
     22 O22         -7.2060    -0.1330    -0.6410 os         1 6J8      -0.354100
     23 C20         -5.3750     0.0790     0.9720 ca         1 6J8      -0.171500
     24 H1           0.6060     2.0080     0.6050 hc         1 6J8       0.007700
     25 H2           1.9010     1.6720     1.7430 hc         1 6J8       0.007700
     26 H3           1.5500     0.2270    -0.9420 hc         1 6J8       0.082700
     27 H4           3.9340     0.2870     0.1090 hc         1 6J8       0.102200
     28 H5           3.3370    -0.5780     1.4380 hc         1 6J8       0.102200
     29 H8           5.8730    -4.1650    -0.1120 h1         1 6J8       0.026700
     30 H9           4.1770    -4.4400    -0.6020 h1         1 6J8       0.026700
     31 H10          5.2820    -3.5300    -1.6750 h1         1 6J8       0.026700
     32 H11          0.8300    -1.7720     0.4630 hc         1 6J8       0.003700
     33 H12          0.7250    -0.7140     1.8570 hc         1 6J8       0.003700
     34 H13         -1.0990     0.5890     0.7500 hc         1 6J8       0.055700
     35 H14         -0.9030    -0.3560    -0.7250 hc         1 6J8       0.055700
     36 H15         -1.5850    -2.4240     0.5290 hc         1 6J8       0.032700
     37 H16         -1.7600    -1.4810     1.9980 hc         1 6J8       0.032700
     38 H17         -3.2230    -2.2080    -1.3400 ha         1 6J8       0.116000
     39 H18         -3.6430     0.1410     2.2640 ha         1 6J8       0.116000
     40 H19         -8.2650     0.2670     1.1240 h1         1 6J8       0.030033
     41 H20         -7.6660     1.7060     0.2550 h1         1 6J8       0.030033
     42 H21         -9.0580     0.7980    -0.3740 h1         1 6J8       0.030033
     43 H22          6.1500    -1.4980     0.7350 ho         1 6J8       0.443000
     44 H23         -5.5510    -1.6290    -1.9830 ha         1 6J8       0.107000
     45 H24         -5.9530     0.7190     1.6320 ha         1 6J8       0.107000
@<TRIPOS>BOND
     1     1     2 1   
     2     1    18 1   
     3     1    24 1   
     4     1    25 1   
     5     2     3 1   
     6     2     8 1   
     7     2    26 1   
     8     3     4 1   
     9     3    27 1   
    10     3    28 1   
    11     4    15 2   
    12     4    16 1   
    13     5    18 1   
    14     6    18 1   
    15     7    16 1   
    16     7    29 1   
    17     7    30 1   
    18     7    31 1   
    19     8     9 1   
    20     8    32 1   
    21     8    33 1   
    22     9    10 1   
    23     9    34 1   
    24     9    35 1   
    25    10    11 1   
    26    10    36 1   
    27    10    37 1   
    28    11    12 ar  
    29    11    13 ar  
    30    12    20 ar  
    31    12    38 1   
    32    13    23 ar  
    33    13    39 1   
    34    14    22 1   
    35    14    40 1   
    36    14    41 1   
    37    14    42 1   
    38    16    17 1   
    39    17    43 1   
    40    18    19 1   
    41    20    21 ar  
    42    20    44 1   
    43    21    22 1   
    44    21    23 ar  
    45    23    45 1   
@<TRIPOS>SUBSTRUCTURE
     1 6J8         1 TEMP              0 ****  ****    0 ROOT
