@<TRIPOS>MOLECULE
6J9
   28    30     1     0     0
SMALL
No Charge or Current Charge


@<TRIPOS>ATOM
      1 C4          -0.2160     0.5990     0.1300 ca         1 6J9       0.440900
      2 C5          -1.2870    -0.2880    -0.0910 ca         1 6J9      -0.241800
      3 C6          -2.5810     0.1610    -0.0070 ca         1 6J9       0.139500
      4 N1           4.0220    -0.5370     0.1990 n7         1 6J9      -0.860400
      5 C7          -1.3180    -1.6780    -0.4490 cc         1 6J9      -0.207200
      6 C8          -2.6530    -2.0320    -0.5540 cd         1 6J9      -0.182100
      7 N2          -0.4770     1.8940     0.4080 nb         1 6J9      -0.309000
      8 C9          -1.7810     2.2510     0.4710 ca         1 6J9       0.179900
      9 N            1.1350     0.1970     0.0670 nh         1 6J9      -0.774300
     10 C1           1.6260    -0.8620     1.0070 c6         1 6J9       0.218800
     11 C            2.2050     1.1900    -0.2870 c6         1 6J9       0.218800
     12 C2           3.5280     0.4960    -0.7590 c6         1 6J9       0.142300
     13 C3           2.9530    -1.5300     0.5120 c6         1 6J9       0.142300
     14 N4          -2.8530     1.4470     0.2800 nb         1 6J9      -0.231000
     15 N3          -3.4450    -0.8910    -0.2730 na         1 6J9      -0.316400
     16 H3          -0.4710    -2.3360    -0.6320 ha         1 6J9       0.201000
     17 H4          -3.0920    -2.9950    -0.8120 h4         1 6J9       0.216000
     18 H5          -1.9910     3.2950     0.7000 h5         1 6J9       0.043100
     19 H6           1.8080    -0.4180     1.9980 h1         1 6J9       0.060700
     20 H7           0.8710    -1.6480     1.1470 h1         1 6J9       0.060700
     21 H8           1.8600     1.8550    -1.0930 h1         1 6J9       0.060700
     22 H9           2.4310     1.8230     0.5840 h1         1 6J9       0.060700
     23 H10          4.3050     1.2590    -0.9110 h1         1 6J9       0.039950
     24 H11          3.3430     0.0200    -1.7330 h1         1 6J9       0.039950
     25 H12          2.7320    -2.1170    -0.3920 h1         1 6J9       0.039950
     26 H13          3.3150    -2.2320     1.2770 h1         1 6J9       0.039950
     27 H14         -4.4590    -0.8390    -0.2740 hn         1 6J9       0.361000
     28 H1           4.8270    -1.0260    -0.2170 hn         1 6J9       0.414000
@<TRIPOS>BOND
     1     1     2 ar  
     2     1     7 ar  
     3     1     9 1   
     4     2     3 ar  
     5     2     5 1   
     6     3    14 ar  
     7     3    15 1   
     8     4    12 1   
     9     4    13 1   
    10     4    28 1   
    11     5     6 2   
    12     5    16 1   
    13     6    15 1   
    14     6    17 1   
    15     7     8 ar  
    16     8    14 ar  
    17     8    18 1   
    18     9    10 1   
    19     9    11 1   
    20    10    13 1   
    21    10    19 1   
    22    10    20 1   
    23    11    12 1   
    24    11    21 1   
    25    11    22 1   
    26    12    23 1   
    27    12    24 1   
    28    13    25 1   
    29    13    26 1   
    30    15    27 1   
@<TRIPOS>SUBSTRUCTURE
     1 6J9         1 TEMP              0 ****  ****    0 ROOT
