@<TRIPOS>MOLECULE
6J9
   28    30     1     0     0
SMALL
abcg2


@<TRIPOS>ATOM
      1 C4          -0.1180     0.5330     0.0740 ca         1 6J9       0.440900
      2 C5          -1.1850    -0.4040     0.0160 ca         1 6J9      -0.241800
      3 C6          -2.4640     0.1690    -0.1160 ca         1 6J9       0.139500
      4 N1           3.9220    -0.5140     0.1360 n7         1 6J9      -0.860400
      5 C7          -1.3830    -1.8250     0.0030 cc         1 6J9      -0.207200
      6 C8          -2.7240    -2.0360    -0.1140 cd         1 6J9      -0.182100
      7 N2          -0.4120     1.8330    -0.0370 nb         1 6J9      -0.309000
      8 C9          -1.6750     2.2220    -0.1700 ca         1 6J9       0.179900
      9 N            1.1900     0.2080     0.2030 nh         1 6J9      -0.774300
     10 C1           1.6560    -1.0200     0.8230 c6         1 6J9       0.218800
     11 C            2.2220     1.2320     0.1490 c6         1 6J9       0.218800
     12 C2           3.4590     0.6820    -0.5410 c6         1 6J9       0.142300
     13 C3           2.8970    -1.5380     0.1190 c6         1 6J9       0.142300
     14 N4          -2.7530     1.4690    -0.2020 nb         1 6J9      -0.231000
     15 N3          -3.3710    -0.8330    -0.1790 na         1 6J9      -0.316400
     16 H3          -0.6520    -2.6140     0.0500 ha         1 6J9       0.201000
     17 H4          -3.2740    -2.9610    -0.1620 h4         1 6J9       0.216000
     18 H5          -1.8290     3.2930    -0.2510 h5         1 6J9       0.043100
     19 H6           1.8930    -0.8240     1.8760 h1         1 6J9       0.060700
     20 H7           0.8870    -1.7800     0.8060 h1         1 6J9       0.060700
     21 H8           1.8520     2.0940    -0.3980 h1         1 6J9       0.060700
     22 H9           2.4780     1.5650     1.1620 h1         1 6J9       0.060700
     23 H10          4.2410     1.4420    -0.5100 h1         1 6J9       0.039950
     24 H11          3.2160     0.5050    -1.6010 h1         1 6J9       0.039950
     25 H12          2.6190    -1.8530    -0.8990 h1         1 6J9       0.039950
     26 H13          3.2530    -2.4230     0.6490 h1         1 6J9       0.039950
     27 H14         -4.3660    -0.7060    -0.2710 hn         1 6J9       0.361000
     28 H1           4.7580    -0.8590    -0.3170 hn         1 6J9       0.414000
@<TRIPOS>BOND
     1     1     2 ar  
     2     1     7 ar  
     3     1     9 1   
     4     2     3 ar  
     5     2     5 1   
     6     3    14 ar  
     7     3    15 1   
     8     4    12 1   
     9     4    13 1   
    10     4    28 1   
    11     5     6 2   
    12     5    16 1   
    13     6    15 1   
    14     6    17 1   
    15     7     8 ar  
    16     8    14 ar  
    17     8    18 1   
    18     9    10 1   
    19     9    11 1   
    20    10    13 1   
    21    10    19 1   
    22    10    20 1   
    23    11    12 1   
    24    11    21 1   
    25    11    22 1   
    26    12    23 1   
    27    12    24 1   
    28    13    25 1   
    29    13    26 1   
    30    15    27 1   
@<TRIPOS>SUBSTRUCTURE
     1 6J9         1 TEMP              0 ****  ****    0 ROOT
