@<TRIPOS>MOLECULE
6JA
   27    27     1     0     0
SMALL
No Charge or Current Charge


@<TRIPOS>ATOM
      1 C            3.8380     1.8690     0.0630 c3         1 6JA      -0.101100
      2 N           -4.2950    -1.8160    -0.0720 n1         1 6JA      -0.424000
      3 C8           1.7400    -0.0600     1.2870 c          1 6JA       0.584500
      4 N2           2.2500    -1.3050     1.1120 ns         1 6JA      -0.476500
      5 C7           2.5360    -1.9500    -0.0410 c          1 6JA       0.634000
      6 O1           2.9980    -3.0730    -0.0670 o          1 6JA      -0.523000
      7 N1           2.2620    -1.2480    -1.1610 ns         1 6JA      -0.476500
      8 C6           1.7530     0.0050    -1.2790 c          1 6JA       0.584500
      9 O            1.5480     0.4850    -2.3810 o          1 6JA      -0.498000
     10 C2           1.4420     0.7690     0.0230 c6         1 6JA      -0.216000
     11 C1           2.3060     2.0820     0.0600 c3         1 6JA      -0.064400
     12 C3          -0.0820     1.1710     0.0250 c3         1 6JA      -0.060400
     13 C4          -1.0830    -0.0090    -0.0100 c3         1 6JA       0.105600
     14 SE          -2.8170     0.6260    -0.0030 ss         1 6JA      -0.253100
     15 C5          -3.7210    -0.8040    -0.0430 c1         1 6JA       0.389100
     16 H1           4.1570     1.2940     0.9400 hc         1 6JA       0.045033
     17 H2           4.1660     1.3390    -0.8390 hc         1 6JA       0.045033
     18 H3           4.3540     2.8370     0.0900 hc         1 6JA       0.045033
     19 H4           2.4420    -1.8220     1.9560 hn         1 6JA       0.352500
     20 H5           2.4630    -1.7220    -2.0290 hn         1 6JA       0.352500
     21 H6           2.0480     2.6750     0.9480 hc         1 6JA       0.067700
     22 H7           2.0570     2.7190    -0.7990 hc         1 6JA       0.067700
     23 H8          -0.3060     1.7760     0.9130 hc         1 6JA       0.082200
     24 H9          -0.2970     1.8210    -0.8330 hc         1 6JA       0.082200
     25 H10         -0.9310    -0.6100    -0.9160 h1         1 6JA       0.076200
     26 H11         -0.9400    -0.6550     0.8660 h1         1 6JA       0.076200
     27 O2           1.5230     0.3640     2.4100 o          1 6JA      -0.498000
@<TRIPOS>BOND
     1     1    11 1   
     2     1    16 1   
     3     1    17 1   
     4     1    18 1   
     5     2    15 3   
     6     3     4 1   
     7     3    10 1   
     8     3    27 2   
     9     4     5 1   
    10     4    19 1   
    11     5     6 2   
    12     5     7 1   
    13     7     8 1   
    14     7    20 1   
    15     8     9 2   
    16     8    10 1   
    17    10    11 1   
    18    10    12 1   
    19    11    21 1   
    20    11    22 1   
    21    12    13 1   
    22    12    23 1   
    23    12    24 1   
    24    13    14 1   
    25    13    25 1   
    26    13    26 1   
    27    14    15 1   
@<TRIPOS>SUBSTRUCTURE
     1 6JA         1 TEMP              0 ****  ****    0 ROOT
