@<TRIPOS>MOLECULE
6JA
   27    27     1     0     0
SMALL
abcg2


@<TRIPOS>ATOM
      1 C            3.7800     1.7080     0.0420 c3         1 6JA      -0.101100
      2 N           -4.4020    -1.7490    -0.2050 n1         1 6JA      -0.424000
      3 C8           1.6680    -0.0660     1.2900 c          1 6JA       0.584500
      4 N2           2.3920    -1.2200     1.1500 ns         1 6JA      -0.476500
      5 C7           2.7770    -1.8200    -0.0240 c          1 6JA       0.634000
      6 O1           3.4090    -2.8470    -0.0490 o          1 6JA      -0.523000
      7 N1           2.3790    -1.1770    -1.1740 ns         1 6JA      -0.476500
      8 C6           1.6610    -0.0170    -1.2660 c          1 6JA       0.584500
      9 O            1.3100     0.4110    -2.3400 o          1 6JA      -0.498000
     10 C2           1.3720     0.7230     0.0270 c6         1 6JA      -0.216000
     11 C1           2.2840     1.9820     0.0510 c3         1 6JA      -0.064400
     12 C3          -0.0930     1.1920     0.0420 c3         1 6JA      -0.060400
     13 C4          -1.0860     0.0410     0.0100 c3         1 6JA       0.105600
     14 SE          -2.9070     0.8060     0.1010 ss         1 6JA      -0.253100
     15 C5          -3.8010    -0.7700    -0.0890 c1         1 6JA       0.389100
     16 H1           4.1080     1.1370     0.9110 hc         1 6JA       0.045033
     17 H2           4.1040     1.1790    -0.8550 hc         1 6JA       0.045033
     18 H3           4.3190     2.6540     0.0640 hc         1 6JA       0.045033
     19 H4           2.6400    -1.7170     1.9980 hn         1 6JA       0.352500
     20 H5           2.6150    -1.6450    -2.0410 hn         1 6JA       0.352500
     21 H6           2.0150     2.5550     0.9400 hc         1 6JA       0.067700
     22 H7           2.0130     2.5950    -0.8100 hc         1 6JA       0.067700
     23 H8          -0.2320     1.7980     0.9390 hc         1 6JA       0.082200
     24 H9          -0.2420     1.8510    -0.8140 hc         1 6JA       0.082200
     25 H10         -1.0210    -0.5340    -0.9140 h1         1 6JA       0.076200
     26 H11         -0.9720    -0.6320     0.8590 h1         1 6JA       0.076200
     27 O2           1.3200     0.3210     2.3780 o          1 6JA      -0.498000
@<TRIPOS>BOND
     1     1    11 1   
     2     1    16 1   
     3     1    17 1   
     4     1    18 1   
     5     2    15 3   
     6     3     4 1   
     7     3    10 1   
     8     3    27 2   
     9     4     5 1   
    10     4    19 1   
    11     5     6 2   
    12     5     7 1   
    13     7     8 1   
    14     7    20 1   
    15     8     9 2   
    16     8    10 1   
    17    10    11 1   
    18    10    12 1   
    19    11    21 1   
    20    11    22 1   
    21    12    13 1   
    22    12    23 1   
    23    12    24 1   
    24    13    14 1   
    25    13    25 1   
    26    13    26 1   
    27    14    15 1   
@<TRIPOS>SUBSTRUCTURE
     1 6JA         1 TEMP              0 ****  ****    0 ROOT
