@<TRIPOS>MOLECULE
6JB
   45    45     1     0     0
SMALL
abcg2


@<TRIPOS>ATOM
      1 C1          -1.4230    -1.5900     0.4980 c3         1 6JB      -0.391400
      2 C2          -1.6170    -0.1460     0.0290 c3         1 6JB      -0.002700
      3 C3          -3.0010     0.3460     0.4480 c3         1 6JB      -0.158400
      4 C4          -3.4520     1.6050    -0.2490 c          1 6JB       0.622100
      5 O7          -1.9270    -4.2180     0.2210 o          1 6JB      -0.931833
      6 O8          -3.8880    -2.6100    -0.1550 o          1 6JB      -0.931833
      7 C11         -5.1640     3.3960    -0.2900 c3         1 6JB       0.091300
      8 C15          1.8840     1.5410     0.6120 c3         1 6JB      -0.044100
      9 C17          4.1290     0.4430     0.8320 ca         1 6JB      -0.138000
     10 C18          3.7160     1.8030    -1.0980 ca         1 6JB      -0.140000
     11 C19          5.4080     0.1410     0.3590 ca         1 6JB       0.129100
     12 C20          4.9820     1.5040    -1.5680 ca         1 6JB      -0.083000
     13 C21          5.8400     0.6750    -0.8520 ca         1 6JB      -0.216000
     14 P5          -2.3960    -2.8970    -0.4100 p5         1 6JB       1.294500
     15 O6          -1.9930    -2.7400    -1.8830 o          1 6JB      -0.931833
     16 N9          -4.4820     2.2820     0.3220 n          1 6JB      -0.311300
     17 O10         -5.2030     1.6630     1.3130 oh         1 6JB      -0.422100
     18 O12         -2.9400     2.0260    -1.2780 o          1 6JB      -0.617100
     19 C13         -0.5400     0.7980     0.5770 c3         1 6JB      -0.069400
     20 C16          3.2760     1.2700     0.1160 ca         1 6JB      -0.014300
     21 C23          7.4510    -1.0140     0.7100 c3         1 6JB       0.155900
     22 H1          -0.3680    -1.8670     0.3950 hc         1 6JB       0.008200
     23 H2          -1.6350    -1.6480     1.5750 hc         1 6JB       0.008200
     24 H3          -1.5530    -0.1420    -1.0640 hc         1 6JB       0.083700
     25 H4          -3.7280    -0.4470     0.2380 hc         1 6JB       0.101700
     26 H5          -3.0200     0.4810     1.5340 hc         1 6JB       0.101700
     27 H7          -4.5070     3.8650    -1.0150 h1         1 6JB       0.027700
     28 H8          -6.0790     3.0820    -0.7960 h1         1 6JB       0.027700
     29 H9          -5.4180     4.1340     0.4710 h1         1 6JB       0.027700
     30 H10          0.8570     0.6410    -1.0550 hc         1 6JB       0.057700
     31 H11          1.1920    -0.4620     0.2630 hc         1 6JB       0.057700
     32 H12          1.5890     2.5610     0.3470 hc         1 6JB       0.034200
     33 H13          1.8600     1.4830     1.7040 hc         1 6JB       0.034200
     34 H14          3.8080     0.0200     1.7780 ha         1 6JB       0.130000
     35 H15          3.0640     2.4540    -1.6680 ha         1 6JB       0.117000
     36 H16          5.3210     1.9220    -2.5080 ha         1 6JB       0.095000
     37 H17          6.8250     0.4650    -1.2470 ha         1 6JB       0.098000
     38 H19         -4.9230     2.0700     2.1440 ho         1 6JB       0.419000
     39 H20         -0.8130     1.8340     0.3540 hc         1 6JB       0.001700
     40 H21         -0.5260     0.7160     1.6710 hc         1 6JB       0.001700
     41 H22          7.4390    -1.5490    -0.2440 h1         1 6JB       0.029367
     42 H23          8.0950    -0.1370     0.6120 h1         1 6JB       0.029367
     43 H24          7.8660    -1.6690     1.4720 h1         1 6JB       0.029367
     44 C14          0.8630     0.5560     0.0370 c3         1 6JB      -0.067400
     45 O22          6.1500    -0.6700     1.1400 os         1 6JB      -0.343100
@<TRIPOS>BOND
     1     1     2 1   
     2     1    14 1   
     3     1    22 1   
     4     1    23 1   
     5     2     3 1   
     6     2    19 1   
     7     2    24 1   
     8     3     4 1   
     9     3    25 1   
    10     3    26 1   
    11     4    16 1   
    12     4    18 2   
    13     5    14 1   
    14     6    14 1   
    15     7    16 1   
    16     7    27 1   
    17     7    28 1   
    18     7    29 1   
    19     8    20 1   
    20     8    32 1   
    21     8    33 1   
    22     8    44 1   
    23     9    11 ar  
    24     9    20 ar  
    25     9    34 1   
    26    10    12 ar  
    27    10    20 ar  
    28    10    35 1   
    29    11    13 ar  
    30    11    45 1   
    31    12    13 ar  
    32    12    36 1   
    33    13    37 1   
    34    14    15 1   
    35    16    17 1   
    36    17    38 1   
    37    19    39 1   
    38    19    40 1   
    39    19    44 1   
    40    21    41 1   
    41    21    42 1   
    42    21    43 1   
    43    21    45 1   
    44    30    44 1   
    45    31    44 1   
@<TRIPOS>SUBSTRUCTURE
     1 6JB         1 TEMP              0 ****  ****    0 ROOT
