@<TRIPOS>MOLECULE
6JB
   45    45     1     0     0
SMALL
No Charge or Current Charge


@<TRIPOS>ATOM
      1 C1          -1.4750    -1.6880     0.5110 c3         1 6JB      -0.391400
      2 C2          -1.6610    -0.2110     0.0450 c3         1 6JB      -0.002700
      3 C3          -3.0740     0.3300     0.4110 c3         1 6JB      -0.158400
      4 C4          -3.5150     1.6370    -0.2800 c          1 6JB       0.622100
      5 O7          -1.7800    -4.2870    -0.2110 o          1 6JB      -0.931833
      6 O8          -3.8230    -3.0680     0.3340 o          1 6JB      -0.931833
      7 C11         -5.1670     3.5710    -0.3400 c3         1 6JB       0.091300
      8 C15          1.8990     1.5130     0.6010 c3         1 6JB      -0.044100
      9 C17          4.1890     0.4320     0.8260 ca         1 6JB      -0.138000
     10 C18          3.7280     1.7740    -1.1460 ca         1 6JB      -0.140000
     11 C19          5.4850     0.1670     0.3540 ca         1 6JB       0.129100
     12 C20          5.0220     1.5150    -1.6250 ca         1 6JB      -0.083000
     13 C21          5.9030     0.7140    -0.8790 ca         1 6JB      -0.216000
     14 P5          -2.4940    -2.9840    -0.3350 p5         1 6JB       1.294500
     15 O6          -2.6530    -2.6220    -1.7720 o          1 6JB      -0.931833
     16 N9          -4.6340     2.3320     0.2600 n          1 6JB      -0.311300
     17 O10         -5.3650     1.8190     1.3930 oh         1 6JB      -0.422100
     18 O12         -2.9480     2.0620    -1.2810 o          1 6JB      -0.617100
     19 C13         -0.5580     0.7310     0.6210 c3         1 6JB      -0.069400
     20 C16          3.3040     1.2360     0.0840 ca         1 6JB      -0.014300
     21 C23          7.6480    -0.9570     0.7340 c3         1 6JB       0.155900
     22 H1          -0.4410    -2.0010     0.3410 hc         1 6JB       0.008200
     23 H2          -1.6520    -1.7620     1.5900 hc         1 6JB       0.008200
     24 H3          -1.5680    -0.1980    -1.0490 hc         1 6JB       0.083700
     25 H4          -3.8590    -0.3930     0.1770 hc         1 6JB       0.101700
     26 H5          -3.1920     0.4360     1.4930 hc         1 6JB       0.101700
     27 H7          -4.3840     4.3410    -0.3520 h1         1 6JB       0.027700
     28 H8          -5.4940     3.3720    -1.3680 h1         1 6JB       0.027700
     29 H9          -6.0210     3.9400     0.2430 h1         1 6JB       0.027700
     30 H10          0.8730     0.4680    -0.9940 hc         1 6JB       0.057700
     31 H11          1.2170    -0.5240     0.4220 hc         1 6JB       0.057700
     32 H12          1.5750     2.5130     0.2860 hc         1 6JB       0.034200
     33 H13          1.8970     1.5230     1.6980 hc         1 6JB       0.034200
     34 H14          3.8710     0.0070     1.7750 ha         1 6JB       0.130000
     35 H15          3.0520     2.3940    -1.7310 ha         1 6JB       0.117000
     36 H16          5.3420     1.9350    -2.5760 ha         1 6JB       0.095000
     37 H17          6.8980     0.5290    -1.2730 ha         1 6JB       0.098000
     38 H19         -4.9650     2.2520     2.1810 ho         1 6JB       0.419000
     39 H20         -0.8130     1.7700     0.3800 hc         1 6JB       0.001700
     40 H21         -0.5620     0.6630     1.7160 hc         1 6JB       0.001700
     41 H22          7.6520    -1.5000    -0.2200 h1         1 6JB       0.029367
     42 H23          8.2570    -0.0500     0.6270 h1         1 6JB       0.029367
     43 H24          8.1200    -1.5960     1.4910 h1         1 6JB       0.029367
     44 C14          0.8780     0.4680     0.1030 c3         1 6JB      -0.067400
     45 O22          6.3050    -0.6270     1.1290 os         1 6JB      -0.343100
@<TRIPOS>BOND
     1     1     2 1   
     2     1    14 1   
     3     1    22 1   
     4     1    23 1   
     5     2     3 1   
     6     2    19 1   
     7     2    24 1   
     8     3     4 1   
     9     3    25 1   
    10     3    26 1   
    11     4    16 1   
    12     4    18 2   
    13     5    14 1   
    14     6    14 1   
    15     7    16 1   
    16     7    27 1   
    17     7    28 1   
    18     7    29 1   
    19     8    20 1   
    20     8    32 1   
    21     8    33 1   
    22     8    44 1   
    23     9    11 ar  
    24     9    20 ar  
    25     9    34 1   
    26    10    12 ar  
    27    10    20 ar  
    28    10    35 1   
    29    11    13 ar  
    30    11    45 1   
    31    12    13 ar  
    32    12    36 1   
    33    13    37 1   
    34    14    15 1   
    35    16    17 1   
    36    17    38 1   
    37    19    39 1   
    38    19    40 1   
    39    19    44 1   
    40    21    41 1   
    41    21    42 1   
    42    21    43 1   
    43    21    45 1   
    44    30    44 1   
    45    31    44 1   
@<TRIPOS>SUBSTRUCTURE
     1 6JB         1 TEMP              0 ****  ****    0 ROOT
