@<TRIPOS>MOLECULE
6JC
   27    29     1     0     0
SMALL
No Charge or Current Charge


@<TRIPOS>ATOM
      1 C1          -0.1370     0.2060     0.0340 ca         1 6JC      -0.088000
      2 C2           0.4480     1.3890    -0.5030 ca         1 6JC       0.370900
      3 N4           1.7860     1.5900    -0.6440 nb         1 6JC      -0.680000
      4 C5           0.7460    -0.8150     0.4580 ca         1 6JC      -0.020000
      5 N7           3.9710     0.5120    -0.2420 na         1 6JC      -0.324400
      6 C9           4.4240    -0.7150     0.2960 cc         1 6JC      -0.152100
      7 C11          3.2580    -1.3800     0.6310 cd         1 6JC      -0.232200
      8 C13          2.1130    -0.5720     0.3010 ca         1 6JC      -0.137800
      9 C14          2.5910     0.5970    -0.2350 ca         1 6JC       0.365500
     10 C15         -1.6040     0.0600     0.1610 cc         1 6JC      -0.170000
     11 C16         -2.2650    -1.1250    -0.0180 cd         1 6JC       0.197300
     12 O17         -3.6180    -0.9110     0.0260 os         1 6JC      -0.073700
     13 N18         -3.8590     0.4930     0.1930 nd         1 6JC      -0.366300
     14 C19         -2.6480     1.0180     0.2440 cc         1 6JC       0.290300
     15 C20         -2.4370     2.4950     0.4340 c3         1 6JC      -0.134400
     16 C24         -1.7950    -2.5170    -0.3510 c3         1 6JC      -0.138400
     17 H2          -0.1750     2.2000    -0.8710 h4         1 6JC       0.022100
     18 H5           0.4010    -1.7340     0.9220 ha         1 6JC       0.122000
     19 H7           4.5650     1.2530    -0.5930 hn         1 6JC       0.362000
     20 H9           5.4730    -0.9920     0.3880 h4         1 6JC       0.216000
     21 H11          3.2210    -2.3730     1.0790 ha         1 6JC       0.209000
     22 H202        -2.3070     2.9980    -0.5300 hc         1 6JC       0.057367
     23 H203        -3.3000     2.9510     0.9330 hc         1 6JC       0.057367
     24 H201        -1.5580     2.6930     1.0570 hc         1 6JC       0.057367
     25 H241        -2.5920    -3.0930    -0.8370 hc         1 6JC       0.064033
     26 H243        -0.9430    -2.4970    -1.0400 hc         1 6JC       0.064033
     27 H242        -1.5000    -3.0610     0.5530 hc         1 6JC       0.064033
@<TRIPOS>BOND
     1     1     2 ar  
     2     1     4 ar  
     3     1    10 1   
     4     2     3 ar  
     5     2    17 1   
     6     3     9 ar  
     7     4     8 ar  
     8     4    18 1   
     9     5     6 1   
    10     5     9 1   
    11     5    19 1   
    12     6     7 2   
    13     6    20 1   
    14     7     8 1   
    15     7    21 1   
    16     8     9 ar  
    17    10    11 2   
    18    10    14 1   
    19    11    12 1   
    20    11    16 1   
    21    12    13 1   
    22    13    14 2   
    23    14    15 1   
    24    15    22 1   
    25    15    23 1   
    26    15    24 1   
    27    16    25 1   
    28    16    26 1   
    29    16    27 1   
@<TRIPOS>SUBSTRUCTURE
     1 6JC         1 TEMP              0 ****  ****    0 ROOT
