@<TRIPOS>MOLECULE
6JC
   27    29     1     0     0
SMALL
abcg2


@<TRIPOS>ATOM
      1 C1          -0.1030     0.1340    -0.0750 ca         1 6JC      -0.088000
      2 C2           0.4550     1.1720    -0.8450 ca         1 6JC       0.370900
      3 N4           1.7500     1.3830    -0.9970 nb         1 6JC      -0.680000
      4 C5           0.7530    -0.7480     0.5750 ca         1 6JC      -0.020000
      5 N7           3.9000     0.5370    -0.3750 na         1 6JC      -0.324400
      6 C9           4.3580    -0.5010     0.3880 cc         1 6JC      -0.152100
      7 C11          3.3080    -1.2060     0.9020 cd         1 6JC      -0.232200
      8 C13          2.1240    -0.5640     0.4280 ca         1 6JC      -0.137800
      9 C14          2.5410     0.5270    -0.3700 ca         1 6JC       0.365500
     10 C15         -1.5570    -0.0070     0.0230 cc         1 6JC      -0.170000
     11 C16         -2.3090    -1.1250    -0.1630 cd         1 6JC       0.197300
     12 O17         -3.5940    -0.8300     0.0490 os         1 6JC      -0.073700
     13 N18         -3.7210     0.4880     0.3780 nd         1 6JC      -0.366300
     14 C19         -2.5210     0.9890     0.3640 cc         1 6JC       0.290300
     15 C20         -2.2840     2.4190     0.6920 c3         1 6JC      -0.134400
     16 C24         -1.9720    -2.5160    -0.5410 c3         1 6JC      -0.138400
     17 H2          -0.2030     1.8560    -1.3700 h4         1 6JC       0.022100
     18 H5           0.3580    -1.5480     1.1900 ha         1 6JC       0.122000
     19 H7           4.4770     1.2080    -0.8570 hn         1 6JC       0.362000
     20 H9           5.4170    -0.6620     0.5090 h4         1 6JC       0.216000
     21 H11          3.3730    -2.0740     1.5370 ha         1 6JC       0.209000
     22 H202        -1.9380     2.9710    -0.1830 hc         1 6JC       0.057367
     23 H203        -3.1960     2.8920     1.0490 hc         1 6JC       0.057367
     24 H201        -1.5170     2.5170     1.4600 hc         1 6JC       0.057367
     25 H241        -2.6420    -2.8860    -1.3170 hc         1 6JC       0.064033
     26 H243        -0.9530    -2.5640    -0.9180 hc         1 6JC       0.064033
     27 H242        -2.0480    -3.1900     0.3140 hc         1 6JC       0.064033
@<TRIPOS>BOND
     1     1     2 ar  
     2     1     4 ar  
     3     1    10 1   
     4     2     3 ar  
     5     2    17 1   
     6     3     9 ar  
     7     4     8 ar  
     8     4    18 1   
     9     5     6 1   
    10     5     9 1   
    11     5    19 1   
    12     6     7 2   
    13     6    20 1   
    14     7     8 1   
    15     7    21 1   
    16     8     9 ar  
    17    10    11 2   
    18    10    14 1   
    19    11    12 1   
    20    11    16 1   
    21    12    13 1   
    22    13    14 2   
    23    14    15 1   
    24    15    22 1   
    25    15    23 1   
    26    15    24 1   
    27    16    25 1   
    28    16    26 1   
    29    16    27 1   
@<TRIPOS>SUBSTRUCTURE
     1 6JC         1 TEMP              0 ****  ****    0 ROOT
