@<TRIPOS>MOLECULE
6JD
   27    28     1     0     0
SMALL
bcc


@<TRIPOS>ATOM
      1 O01          0.0130     2.2900     1.1940 o          1 6JD      -0.603300
      2 S02          0.0110     1.5190    -0.0480 sy         1 6JD       1.182600
      3 O03          0.0570     2.2210    -1.3280 o          1 6JD      -0.603300
      4 C04          1.3800     0.4070     0.0050 ca         1 6JD      -0.313000
      5 C05          1.9720    -0.0150    -1.1780 ca         1 6JD       0.010500
      6 C06          3.0510    -0.8790    -1.1350 ca         1 6JD      -0.218750
      7 C07          3.5440    -1.3230     0.0920 ca         1 6JD       0.194600
      8 O08          4.5870    -2.1550     0.1920 oh         1 6JD      -0.484100
      9 C09          2.9420    -0.8950     1.2780 ca         1 6JD      -0.218750
     10 C10          1.8660    -0.0320     1.2330 ca         1 6JD       0.010500
     11 C11         -1.4240     0.4930    -0.0430 ca         1 6JD      -0.313000
     12 C12         -2.0340     0.1630     1.1600 ca         1 6JD       0.010500
     13 C13         -3.1630    -0.6340     1.1610 ca         1 6JD      -0.218750
     14 C14         -3.6900    -1.1030    -0.0430 ca         1 6JD       0.194600
     15 O15         -4.7830    -1.8730    -0.1010 oh         1 6JD      -0.484100
     16 C16         -3.0710    -0.7670    -1.2490 ca         1 6JD      -0.218750
     17 C17         -1.9440     0.0290    -1.2480 ca         1 6JD       0.010500
     18 H051         1.6060     0.3240    -2.1370 ha         1 6JD       0.153500
     19 H061         3.5150    -1.2010    -2.0600 ha         1 6JD       0.145000
     20 H081         4.9390    -2.3710    -0.6800 ho         1 6JD       0.434000
     21 H091         3.3280    -1.2340     2.2300 ha         1 6JD       0.145000
     22 H101         1.4170     0.2980     2.1600 ha         1 6JD       0.153500
     23 H121        -1.6410     0.5220     2.1010 ha         1 6JD       0.153500
     24 H131        -3.6400    -0.8840     2.1020 ha         1 6JD       0.145000
     25 H151        -5.1410    -2.0290     0.7810 ho         1 6JD       0.434000
     26 H161        -3.4830    -1.1250    -2.1830 ha         1 6JD       0.145000
     27 H171        -1.4810     0.2880    -2.1910 ha         1 6JD       0.153500
@<TRIPOS>BOND
     1     1     2 2   
     2     2     3 2   
     3     2     4 1   
     4     2    11 1   
     5     4     5 ar  
     6     4    10 ar  
     7     5     6 ar  
     8     5    18 1   
     9     6     7 ar  
    10     6    19 1   
    11     7     8 1   
    12     7     9 ar  
    13     8    20 1   
    14     9    10 ar  
    15     9    21 1   
    16    10    22 1   
    17    11    12 ar  
    18    11    17 ar  
    19    12    13 ar  
    20    12    23 1   
    21    13    14 ar  
    22    13    24 1   
    23    14    15 1   
    24    14    16 ar  
    25    15    25 1   
    26    16    17 ar  
    27    16    26 1   
    28    17    27 1   
@<TRIPOS>SUBSTRUCTURE
     1 6JD         1 TEMP              0 ****  ****    0 ROOT
