@<TRIPOS>MOLECULE
6JD
   27    28     1     0     0
SMALL
No Charge or Current Charge


@<TRIPOS>ATOM
      1 O01          0.0020     2.3950     1.2150 o          1 6JD      -0.532500
      2 S02          0.0150     1.6420    -0.0470 sy         1 6JD       1.041000
      3 O03          0.0730     2.3300    -1.3440 o          1 6JD      -0.532500
      4 C04          1.3870     0.4770     0.0210 ca         1 6JD      -0.313000
      5 C05          1.9510    -0.0190    -1.1720 ca         1 6JD       0.028500
      6 C06          3.0130    -0.9390    -1.1150 ca         1 6JD      -0.200750
      7 C07          3.5090    -1.3640     0.1270 ca         1 6JD       0.194600
      8 O08          4.5370    -2.2550     0.1880 oh         1 6JD      -0.523100
      9 C09          2.9450    -0.8760     1.3130 ca         1 6JD      -0.200750
     10 C10          1.8840     0.0430     1.2670 ca         1 6JD       0.028500
     11 C11         -1.4260     0.5620    -0.0590 ca         1 6JD      -0.313000
     12 C12         -2.0180     0.1600     1.1560 ca         1 6JD       0.028500
     13 C13         -3.1350    -0.6940     1.1420 ca         1 6JD      -0.200750
     14 C14         -3.6570    -1.1480    -0.0780 ca         1 6JD       0.194600
     15 O15         -4.7380    -1.9760    -0.0970 oh         1 6JD      -0.523100
     16 C16         -3.0670    -0.7550    -1.2860 ca         1 6JD      -0.200750
     17 C17         -1.9500     0.0990    -1.2830 ca         1 6JD       0.028500
     18 H051         1.5720     0.3000    -2.1420 ha         1 6JD       0.135500
     19 H061         3.4430    -1.3150    -2.0400 ha         1 6JD       0.127000
     20 H081         4.8000    -2.4830    -0.7290 ho         1 6JD       0.473000
     21 H091         3.3300    -1.2100     2.2730 ha         1 6JD       0.127000
     22 H101         1.4530     0.4110     2.1970 ha         1 6JD       0.135500
     23 H121        -1.6190     0.5030     2.1090 ha         1 6JD       0.135500
     24 H131        -3.5850    -0.9970     2.0830 ha         1 6JD       0.127000
     25 H151        -5.0140    -2.1420     0.8290 ho         1 6JD       0.473000
     26 H161        -3.4720    -1.1110    -2.2290 ha         1 6JD       0.127000
     27 H171        -1.4990     0.3930    -2.2300 ha         1 6JD       0.135500
@<TRIPOS>BOND
     1     1     2 2   
     2     2     3 2   
     3     2     4 1   
     4     2    11 1   
     5     4     5 ar  
     6     4    10 ar  
     7     5     6 ar  
     8     5    18 1   
     9     6     7 ar  
    10     6    19 1   
    11     7     8 1   
    12     7     9 ar  
    13     8    20 1   
    14     9    10 ar  
    15     9    21 1   
    16    10    22 1   
    17    11    12 ar  
    18    11    17 ar  
    19    12    13 ar  
    20    12    23 1   
    21    13    14 ar  
    22    13    24 1   
    23    14    15 1   
    24    14    16 ar  
    25    15    25 1   
    26    16    17 ar  
    27    16    26 1   
    28    17    27 1   
@<TRIPOS>SUBSTRUCTURE
     1 6JD         1 TEMP              0 ****  ****    0 ROOT
