@<TRIPOS>MOLECULE
6JE
   56    60     1     0     0
SMALL
No Charge or Current Charge


@<TRIPOS>ATOM
      1 C1          11.2840    -3.3380     1.5320 c3         1 6JE      -0.128400
      2 N5          13.4610    -5.0160    -0.8540 nc         1 6JE      -0.335000
      3 N6          13.1990    -4.0650     0.1200 nc         1 6JE      -0.350000
      4 C7          11.9420    -4.2290     0.5140 cd         1 6JE       0.417800
      5 C8           7.3530    -7.7980    -1.6420 c3         1 6JE      -0.032800
      6 C12          6.7920    -7.3520     1.4140 c3         1 6JE      -0.022800
      7 S16          9.2230    -5.8950     1.4570 ss         1 6JE       0.243000
      8 C17          7.9830    -6.8460     0.6410 cc         1 6JE      -0.199300
      9 C18          8.2550    -7.0260    -0.7050 cd         1 6JE      -0.060300
     10 C20          9.2750    -6.0360    -4.9520 ca         1 6JE      -0.069000
     11 C22          8.4840    -5.4070    -5.9290 ca         1 6JE      -0.110500
     12 C24          7.5120    -4.4700    -5.5500 ca         1 6JE       0.136000
     13 C25          7.3340    -4.1540    -4.1950 ca         1 6JE      -0.110500
     14 C27          8.1230    -4.7800    -3.2150 ca         1 6JE      -0.069000
     15 C29          9.0940    -5.7440    -3.5780 ca         1 6JE      -0.138900
     16 O30         13.4370    -9.6880    -2.9130 o          1 6JE      -0.597100
     17 C33         12.7430    -8.8850    -7.2050 ca         1 6JE      -0.113000
     18 C35         12.5520    -9.7520    -8.2950 ca         1 6JE      -0.143000
     19 C37         12.5930   -11.1410    -8.1050 ca         1 6JE       0.106100
     20 C38         12.8240   -11.6630    -6.8230 ca         1 6JE      -0.143000
     21 C40         13.0140   -10.7980    -5.7290 ca         1 6JE      -0.113000
     22 C42         12.9750    -9.3970    -5.9130 ca         1 6JE      -0.057000
     23 N43         13.1560    -8.4590    -4.8570 ns         1 6JE      -0.133000
     24 C46         13.5090    -7.2900    -2.7270 c3         1 6JE      -0.135400
     25 C49         12.2210    -6.9470    -1.9390 c3         1 6JE       0.101200
     26 N51         11.1190    -6.8080    -2.9060 n2         1 6JE      -0.598900
     27 C52          9.9480    -6.3780    -2.5380 cf         1 6JE       0.564500
     28 C53          9.4750    -6.3990    -1.1380 cd         1 6JE      -0.210900
     29 C54         10.0790    -5.7850    -0.0630 cc         1 6JE      -0.115200
     30 N55         11.3560    -5.2350    -0.2210 na         1 6JE      -0.267800
     31 C56         12.3440    -5.7110    -1.0490 cd         1 6JE       0.393800
     32 H13         11.8600    -2.4180     1.6820 hc         1 6JE       0.065700
     33 H11         10.2780    -3.0480     1.2080 hc         1 6JE       0.065700
     34 H12         11.2050    -3.8430     2.5000 hc         1 6JE       0.065700
     35 H82          6.8270    -8.6050    -1.1200 hc         1 6JE       0.052367
     36 H83          6.5970    -7.1400    -2.0870 hc         1 6JE       0.052367
     37 H81          7.9190    -8.2610    -2.4590 hc         1 6JE       0.052367
     38 H122         6.7680    -6.9380     2.4290 hc         1 6JE       0.053033
     39 H123         5.8550    -7.0730     0.9170 hc         1 6JE       0.053033
     40 H121         6.8180    -8.4450     1.4980 hc         1 6JE       0.053033
     41 H20         10.0230    -6.7600    -5.2700 ha         1 6JE       0.128500
     42 H22          8.6250    -5.6460    -6.9800 ha         1 6JE       0.134500
     43 H25          6.5870    -3.4190    -3.9050 ha         1 6JE       0.134500
     44 H27          7.9760    -4.5080    -2.1720 ha         1 6JE       0.128500
     45 H31         12.4690   -12.9020    -8.8530 ho         1 6JE       0.461000
     46 H35         12.3730    -9.3460    -9.2880 ha         1 6JE       0.122500
     47 H38         12.8580   -12.7390    -6.6650 ha         1 6JE       0.122500
     48 H40         13.1920   -11.2370    -4.7530 ha         1 6JE       0.132500
     49 H43         13.1120    -7.4940    -5.1590 hn         1 6JE       0.163000
     50 H461        14.3360    -7.4020    -2.0160 hc         1 6JE       0.089200
     51 H462        13.7200    -6.4710    -3.4240 hc         1 6JE       0.089200
     52 H49         12.0120    -7.7900    -1.2650 h1         1 6JE       0.081700
     53 Cl           6.5240    -3.6830    -6.7740 cl         1 6JE      -0.203000
     54 C45         13.3560    -8.6080    -3.4890 c          1 6JE       0.603100
     55 H33         12.7080    -7.8090    -7.3680 ha         1 6JE       0.132500
     56 O31         12.4080   -11.9740    -9.1680 oh         1 6JE      -0.539100
@<TRIPOS>BOND
     1     1     4 1   
     2     1    32 1   
     3     1    33 1   
     4     1    34 1   
     5     2     3 1   
     6     2    31 2   
     7     3     4 2   
     8     4    30 1   
     9     5     9 1   
    10     5    35 1   
    11     5    36 1   
    12     5    37 1   
    13     6     8 1   
    14     6    38 1   
    15     6    39 1   
    16     6    40 1   
    17     7     8 1   
    18     7    29 1   
    19     8     9 2   
    20     9    28 1   
    21    10    11 ar  
    22    10    15 ar  
    23    10    41 1   
    24    11    12 ar  
    25    11    42 1   
    26    12    13 ar  
    27    12    53 1   
    28    13    14 ar  
    29    13    43 1   
    30    14    15 ar  
    31    14    44 1   
    32    15    27 1   
    33    16    54 2   
    34    17    18 ar  
    35    17    22 ar  
    36    17    55 1   
    37    18    19 ar  
    38    18    46 1   
    39    19    20 ar  
    40    19    56 1   
    41    20    21 ar  
    42    20    47 1   
    43    21    22 ar  
    44    21    48 1   
    45    22    23 1   
    46    23    49 1   
    47    23    54 1   
    48    24    25 1   
    49    24    50 1   
    50    24    51 1   
    51    24    54 1   
    52    25    26 1   
    53    25    31 1   
    54    25    52 1   
    55    26    27 2   
    56    27    28 1   
    57    28    29 2   
    58    29    30 1   
    59    30    31 1   
    60    45    56 1   
@<TRIPOS>SUBSTRUCTURE
     1 6JE         1 TEMP              0 ****  ****    0 ROOT
