@<TRIPOS>MOLECULE
6JE
   56    60     1     0     0
SMALL
abcg2


@<TRIPOS>ATOM
      1 C1          11.2060    -3.3760     1.5410 c3         1 6JE      -0.128400
      2 N5          13.6270    -4.9260    -0.6800 nc         1 6JE      -0.335000
      3 N6          13.2550    -3.9750     0.2610 nc         1 6JE      -0.350000
      4 C7          12.0010    -4.1780     0.5810 cd         1 6JE       0.417800
      5 C8           7.5480    -7.7600    -1.9500 c3         1 6JE      -0.032800
      6 C12          6.9150    -7.5140     1.0840 c3         1 6JE      -0.022800
      7 S16          9.3450    -6.1450     1.2760 ss         1 6JE       0.243000
      8 C17          8.1190    -6.9780     0.3770 cc         1 6JE      -0.199300
      9 C18          8.4160    -7.0420    -0.9580 cd         1 6JE      -0.060300
     10 C20          9.5620    -6.2930    -5.0240 ca         1 6JE      -0.069000
     11 C22          8.7400    -5.9140    -6.0730 ca         1 6JE      -0.110500
     12 C24          7.6850    -5.0440    -5.8210 ca         1 6JE       0.136000
     13 C25          7.4390    -4.5570    -4.5440 ca         1 6JE      -0.110500
     14 C27          8.2630    -4.9580    -3.5010 ca         1 6JE      -0.069000
     15 C29          9.3330    -5.8230    -3.7280 ca         1 6JE      -0.138900
     16 O30         13.5710    -9.6410    -2.8420 o          1 6JE      -0.597100
     17 C33         12.2960    -8.5960    -6.8310 ca         1 6JE      -0.113000
     18 C35         11.8880    -9.3990    -7.8820 ca         1 6JE      -0.143000
     19 C37         11.9320   -10.7860    -7.7530 ca         1 6JE       0.106100
     20 C38         12.3880   -11.3490    -6.5660 ca         1 6JE      -0.143000
     21 C40         12.7990   -10.5430    -5.5090 ca         1 6JE      -0.113000
     22 C42         12.7540    -9.1530    -5.6320 ca         1 6JE      -0.057000
     23 N43         13.1500    -8.2600    -4.6170 ns         1 6JE      -0.133000
     24 C46         13.7200    -7.2720    -2.4860 c3         1 6JE      -0.135400
     25 C49         12.4040    -6.8140    -1.8540 c3         1 6JE       0.101200
     26 N51         11.4810    -6.3710    -2.9030 n2         1 6JE      -0.598900
     27 C52         10.2380    -6.2290    -2.6230 cf         1 6JE       0.564500
     28 C53          9.6610    -6.3930    -1.2740 cd         1 6JE      -0.210900
     29 C54         10.2680    -5.8700    -0.1510 cc         1 6JE      -0.115200
     30 N55         11.5260    -5.2580    -0.1320 na         1 6JE      -0.267800
     31 C56         12.5910    -5.6830    -0.9000 cd         1 6JE       0.393800
     32 H13         11.7740    -2.4870     1.8080 hc         1 6JE       0.065700
     33 H11         10.2530    -3.0740     1.1030 hc         1 6JE       0.065700
     34 H12         10.9950    -3.9390     2.4520 hc         1 6JE       0.065700
     35 H82          7.0060    -8.5720    -1.4650 hc         1 6JE       0.052367
     36 H83          6.8120    -7.0910    -2.4000 hc         1 6JE       0.052367
     37 H81          8.1430    -8.1830    -2.7590 hc         1 6JE       0.052367
     38 H122         7.0010    -7.3970     2.1640 hc         1 6JE       0.053033
     39 H123         6.0080    -6.9980     0.7590 hc         1 6JE       0.053033
     40 H121         6.7840    -8.5770     0.8700 hc         1 6JE       0.053033
     41 H20         10.3820    -6.9730    -5.2040 ha         1 6JE       0.128500
     42 H22          8.9110    -6.2900    -7.0720 ha         1 6JE       0.134500
     43 H25          6.6160    -3.8780    -4.3670 ha         1 6JE       0.134500
     44 H27          8.0720    -4.5850    -2.5030 ha         1 6JE       0.128500
     45 H31         11.6020   -12.4790    -8.6040 ho         1 6JE       0.461000
     46 H35         11.5330    -8.9590    -8.8040 ha         1 6JE       0.122500
     47 H38         12.4260   -12.4280    -6.4630 ha         1 6JE       0.122500
     48 H40         13.1490   -10.9910    -4.5950 ha         1 6JE       0.132500
     49 H43         13.0410    -7.2830    -4.8450 hn         1 6JE       0.163000
     50 H461        14.4290    -7.5310    -1.7020 hc         1 6JE       0.089200
     51 H462        14.1350    -6.4600    -3.0820 hc         1 6JE       0.089200
     52 H49         11.9620    -7.6490    -1.2950 h1         1 6JE       0.081700
     53 CL           6.6440    -4.5590    -7.1390 cl         1 6JE      -0.203000
     54 C45         13.4860    -8.5150    -3.3280 c          1 6JE       0.603100
     55 H33         12.2590    -7.5180    -6.9380 ha         1 6JE       0.132500
     56 O31         11.5200   -11.5400    -8.8170 oh         1 6JE      -0.539100
@<TRIPOS>BOND
     1     1     4 1   
     2     1    32 1   
     3     1    33 1   
     4     1    34 1   
     5     2     3 1   
     6     2    31 2   
     7     3     4 2   
     8     4    30 1   
     9     5     9 1   
    10     5    35 1   
    11     5    36 1   
    12     5    37 1   
    13     6     8 1   
    14     6    38 1   
    15     6    39 1   
    16     6    40 1   
    17     7     8 1   
    18     7    29 1   
    19     8     9 2   
    20     9    28 1   
    21    10    11 ar  
    22    10    15 ar  
    23    10    41 1   
    24    11    12 ar  
    25    11    42 1   
    26    12    13 ar  
    27    12    53 1   
    28    13    14 ar  
    29    13    43 1   
    30    14    15 ar  
    31    14    44 1   
    32    15    27 1   
    33    16    54 2   
    34    17    18 ar  
    35    17    22 ar  
    36    17    55 1   
    37    18    19 ar  
    38    18    46 1   
    39    19    20 ar  
    40    19    56 1   
    41    20    21 ar  
    42    20    47 1   
    43    21    22 ar  
    44    21    48 1   
    45    22    23 1   
    46    23    49 1   
    47    23    54 1   
    48    24    25 1   
    49    24    50 1   
    50    24    51 1   
    51    24    54 1   
    52    25    26 1   
    53    25    31 1   
    54    25    52 1   
    55    26    27 2   
    56    27    28 1   
    57    28    29 2   
    58    29    30 1   
    59    30    31 1   
    60    45    56 1   
@<TRIPOS>SUBSTRUCTURE
     1 6JE         1 TEMP              0 ****  ****    0 ROOT
