@<TRIPOS>MOLECULE
6JF
   54    58     1     0     0
SMALL
bcc


@<TRIPOS>ATOM
      1 C26          4.6680     0.5900    -1.0230 cc         1 6JF       0.298000
      2 C11          0.4360    -3.6280    -0.6120 ca         1 6JF      -0.212300
      3 C14          0.7050    -2.6000     1.6870 c3         1 6JF       0.015700
      4 C20          1.2970     1.9980    -0.4940 ca         1 6JF       0.382200
      5 C16         -1.3130    -1.1200     1.2770 cc         1 6JF      -0.125100
      6 C22          4.6450    -0.8290    -1.4440 c3         1 6JF      -0.136400
      7 O1          -7.8370     1.6900     0.2920 o          1 6JF      -0.825800
      8 O2          -6.9210     3.7060     0.0460 o          1 6JF      -0.825800
      9 N4           2.5320    -3.6710     0.5240 nb         1 6JF      -0.676000
     10 C5           3.0530    -4.3230    -0.5110 ca         1 6JF       0.394200
     11 C7           2.3260    -4.6610    -1.6410 ca         1 6JF      -0.246300
     12 C9           0.9850    -4.3060    -1.6870 ca         1 6JF      -0.091000
     13 C13          1.2510    -3.3300     0.4750 ca         1 6JF       0.385600
     14 N18          0.0260    -1.3810     1.2750 na         1 6JF      -0.061400
     15 N19          0.0200     1.7920    -0.2450 nb         1 6JF      -0.607000
     16 O27          5.8160     1.2570    -1.1490 os         1 6JF      -0.126100
     17 N28          5.6600     2.5410    -0.7110 nc         1 6JF      -0.380300
     18 C29          3.9060     3.9350     0.2220 c3         1 6JF      -0.135400
     19 C33          4.4230     2.6530    -0.3290 cd         1 6JF       0.359600
     20 C34          3.7230     1.4200    -0.5020 cd         1 6JF      -0.284600
     21 C35          2.3360     1.1030    -0.1700 ca         1 6JF      -0.127300
     22 C36          2.0090    -0.0940     0.4540 ca         1 6JF      -0.103000
     23 C38          0.6660    -0.3210     0.7000 ca         1 6JF      -0.166500
     24 C39         -0.3040     0.6410     0.3470 ca         1 6JF       0.418100
     25 C40         -1.5830     0.1100     0.7250 cd         1 6JF      -0.134000
     26 C41         -5.3200     0.4840     0.5080 ca         1 6JF      -0.114500
     27 C43         -4.0610    -0.0800     0.6220 ca         1 6JF      -0.139000
     28 C45         -2.9070     0.7110     0.5740 ca         1 6JF      -0.069800
     29 C46         -3.0710     2.0870     0.3890 ca         1 6JF      -0.139000
     30 C48         -4.3370     2.6420     0.2710 ca         1 6JF      -0.114500
     31 C50         -5.4840     1.8570     0.3330 ca         1 6JF      -0.117600
     32 C51         -6.8690     2.4720     0.2120 c          1 6JF       0.921200
     33 C52         -0.1900    -3.5020     2.5220 c3         1 6JF      -0.099100
     34 H14          1.5610    -2.3050     2.2980 h1         1 6JF       0.083700
     35 H20          1.5420     2.9260    -1.0000 h4         1 6JF       0.013100
     36 H16         -2.0060    -1.8310     1.6970 h4         1 6JF       0.167000
     37 H223         5.2800    -0.9920    -2.3150 hc         1 6JF       0.061367
     38 H221         5.0020    -1.4830    -0.6460 hc         1 6JF       0.061367
     39 H222         3.6310    -1.1350    -1.6960 hc         1 6JF       0.061367
     40 H5           4.1030    -4.5820    -0.4360 h4         1 6JF       0.015100
     41 H7           2.7990    -5.1860    -2.4590 ha         1 6JF       0.139000
     42 H9           0.3780    -4.5530    -2.5470 ha         1 6JF       0.141000
     43 H292         3.2860     4.4550    -0.5080 hc         1 6JF       0.058033
     44 H291         3.2930     3.7560     1.1040 hc         1 6JF       0.058033
     45 H293         4.7260     4.5960     0.4960 hc         1 6JF       0.058033
     46 H36          2.7760    -0.8040     0.7380 ha         1 6JF       0.140000
     47 H41         -6.1930    -0.1540     0.5500 ha         1 6JF       0.144500
     48 H43         -3.9760    -1.1540     0.7360 ha         1 6JF       0.111500
     49 H46         -2.2030     2.7290     0.3370 ha         1 6JF       0.111500
     50 H48         -4.4330     3.7120     0.1350 ha         1 6JF       0.144500
     51 H523        -0.5530    -2.9820     3.4090 hc         1 6JF       0.051700
     52 H521        -1.0440    -3.8730     1.9560 hc         1 6JF       0.051700
     53 H522         0.3890    -4.3640     2.8510 hc         1 6JF       0.051700
     54 H11         -0.6070    -3.3370    -0.6190 ha         1 6JF       0.159000
@<TRIPOS>BOND
     1     1     6 1   
     2     1    16 1   
     3     1    20 2   
     4     2    12 ar  
     5     2    13 ar  
     6     2    54 1   
     7     3    13 1   
     8     3    14 1   
     9     3    33 1   
    10     3    34 1   
    11     4    15 ar  
    12     4    21 ar  
    13     4    35 1   
    14     5    14 1   
    15     5    25 2   
    16     5    36 1   
    17     6    37 1   
    18     6    38 1   
    19     6    39 1   
    20     7    32 1   
    21     8    32 1   
    22     9    10 ar  
    23     9    13 ar  
    24    10    11 ar  
    25    10    40 1   
    26    11    12 ar  
    27    11    41 1   
    28    12    42 1   
    29    14    23 1   
    30    15    24 ar  
    31    16    17 1   
    32    17    19 2   
    33    18    19 1   
    34    18    43 1   
    35    18    44 1   
    36    18    45 1   
    37    19    20 1   
    38    20    21 1   
    39    21    22 ar  
    40    22    23 ar  
    41    22    46 1   
    42    23    24 ar  
    43    24    25 1   
    44    25    28 1   
    45    26    27 ar  
    46    26    31 ar  
    47    26    47 1   
    48    27    28 ar  
    49    27    48 1   
    50    28    29 ar  
    51    29    30 ar  
    52    29    49 1   
    53    30    31 ar  
    54    30    50 1   
    55    31    32 1   
    56    33    51 1   
    57    33    52 1   
    58    33    53 1   
@<TRIPOS>SUBSTRUCTURE
     1 6JF         1 TEMP              0 ****  ****    0 ROOT
