@<TRIPOS>MOLECULE
6JF
   54    58     1     0     0
SMALL
No Charge or Current Charge


@<TRIPOS>ATOM
      1 C26          4.7520     0.5050    -0.7450 cc         1 6JF       0.188300
      2 C11          0.5180    -3.5140    -0.8290 ca         1 6JF      -0.129000
      3 C14          0.7000    -2.6690     1.5880 c3         1 6JF       0.045000
      4 C20          1.2940     2.0590    -0.3930 ca         1 6JF       0.316900
      5 C16         -1.4310    -1.2010     1.2940 cc         1 6JF      -0.175100
      6 C22          4.7690    -0.9910    -0.9020 c3         1 6JF      -0.136400
      7 O1          -7.9190     1.8320     0.4280 o          1 6JF      -0.720500
      8 O2          -7.0190     3.7350     0.0010 o          1 6JF      -0.720500
      9 N4           2.5520    -3.8180     0.4530 nb         1 6JF      -0.676000
     10 C5           3.1040    -4.4230    -0.6240 ca         1 6JF       0.328900
     11 C7           2.4160    -4.6020    -1.8350 ca         1 6JF      -0.163000
     12 C9           1.0940    -4.1420    -1.9450 ca         1 6JF      -0.073000
     13 C13          1.2760    -3.3670     0.3510 ca         1 6JF       0.320300
     14 N18         -0.0400    -1.4270     1.2500 na         1 6JF      -0.090700
     15 N19         -0.0170     1.8450    -0.1150 nb         1 6JF      -0.607000
     16 O27          5.9240     1.1810    -0.9720 os         1 6JF      -0.081700
     17 N28          5.6870     2.5840    -0.8120 nc         1 6JF      -0.380300
     18 C29          3.8240     4.0260    -0.2080 c3         1 6JF      -0.135400
     19 C33          4.4020     2.6700    -0.5220 cd         1 6JF       0.294300
     20 C34          3.7460     1.4070    -0.4990 cd         1 6JF      -0.154000
     21 C35          2.3330     1.1160    -0.1410 ca         1 6JF      -0.062000
     22 C36          1.9650    -0.1190     0.4440 ca         1 6JF      -0.085000
     23 C38          0.6060    -0.3150     0.7280 ca         1 6JF      -0.101200
     24 C39         -0.3150     0.6610     0.4530 ca         1 6JF       0.352800
     25 C40         -1.6150     0.1030     0.8290 cd         1 6JF      -0.134000
     26 C41         -5.4000     0.5540     0.7210 ca         1 6JF      -0.096500
     27 C43         -4.1230    -0.0180     0.8530 ca         1 6JF      -0.121000
     28 C45         -2.9490     0.7510     0.6770 ca         1 6JF      -0.069800
     29 C46         -3.1100     2.1230     0.3760 ca         1 6JF      -0.121000
     30 C48         -4.3860     2.6970     0.2450 ca         1 6JF      -0.096500
     31 C50         -5.5540     1.9220     0.4120 ca         1 6JF      -0.117600
     32 C51         -6.9360     2.5440     0.2700 c          1 6JF       0.710600
     33 C52         -0.1230    -3.6550     2.4490 c3         1 6JF      -0.099100
     34 H14          1.5480    -2.3550     2.2100 h1         1 6JF       0.083700
     35 H20          1.5050     3.0060    -0.8810 h4         1 6JF       0.013100
     36 H16         -2.1370    -1.9460     1.6430 h4         1 6JF       0.217000
     37 H223         5.6080    -1.3070    -1.5330 hc         1 6JF       0.061367
     38 H221         4.8780    -1.4860     0.0700 hc         1 6JF       0.061367
     39 H222         3.8470    -1.3490    -1.3750 hc         1 6JF       0.061367
     40 H5           4.1300    -4.7710    -0.5120 h4         1 6JF       0.015100
     41 H7           2.9050    -5.0930    -2.6720 ha         1 6JF       0.121000
     42 H9           0.5330    -4.2660    -2.8690 ha         1 6JF       0.123000
     43 H292         3.3000     4.4390    -1.0770 hc         1 6JF       0.058033
     44 H291         3.1210     3.9720     0.6300 hc         1 6JF       0.058033
     45 H293         4.6080     4.7390     0.0730 hc         1 6JF       0.058033
     46 H36          2.6960    -0.8800     0.6900 ha         1 6JF       0.122000
     47 H41         -6.2750    -0.0780     0.8590 ha         1 6JF       0.126500
     48 H43         -4.0640    -1.0770     1.0830 ha         1 6JF       0.093500
     49 H46         -2.2570     2.7790     0.2590 ha         1 6JF       0.093500
     50 H48         -4.4630     3.7580     0.0160 ha         1 6JF       0.126500
     51 H523        -0.4990    -3.1610     3.3530 hc         1 6JF       0.051700
     52 H521        -0.9760    -4.0520     1.8860 hc         1 6JF       0.051700
     53 H522         0.5010    -4.5010     2.7600 hc         1 6JF       0.051700
     54 H11         -0.5020    -3.1430    -0.8770 ha         1 6JF       0.141000
@<TRIPOS>BOND
     1     1     6 1   
     2     1    16 1   
     3     1    20 2   
     4     2    12 ar  
     5     2    13 ar  
     6     2    54 1   
     7     3    13 1   
     8     3    14 1   
     9     3    33 1   
    10     3    34 1   
    11     4    15 ar  
    12     4    21 ar  
    13     4    35 1   
    14     5    14 1   
    15     5    25 2   
    16     5    36 1   
    17     6    37 1   
    18     6    38 1   
    19     6    39 1   
    20     7    32 1   
    21     8    32 1   
    22     9    10 ar  
    23     9    13 ar  
    24    10    11 ar  
    25    10    40 1   
    26    11    12 ar  
    27    11    41 1   
    28    12    42 1   
    29    14    23 1   
    30    15    24 ar  
    31    16    17 1   
    32    17    19 2   
    33    18    19 1   
    34    18    43 1   
    35    18    44 1   
    36    18    45 1   
    37    19    20 1   
    38    20    21 1   
    39    21    22 ar  
    40    22    23 ar  
    41    22    46 1   
    42    23    24 ar  
    43    24    25 1   
    44    25    28 1   
    45    26    27 ar  
    46    26    31 ar  
    47    26    47 1   
    48    27    28 ar  
    49    27    48 1   
    50    28    29 ar  
    51    29    30 ar  
    52    29    49 1   
    53    30    31 ar  
    54    30    50 1   
    55    31    32 1   
    56    33    51 1   
    57    33    52 1   
    58    33    53 1   
@<TRIPOS>SUBSTRUCTURE
     1 6JF         1 TEMP              0 ****  ****    0 ROOT
