@<TRIPOS>MOLECULE
6JG
   41    44     1     0     0
SMALL
No Charge or Current Charge


@<TRIPOS>ATOM
      1 C4          -2.1630    -0.0960    -1.9550 ca         1 6JG      -0.088500
      2 C5          -1.5100     0.4750    -0.8540 ca         1 6JG       0.066100
      3 C6          -2.1280     0.4530     0.4120 ca         1 6JG      -0.088500
      4 N1           3.7190     0.9380    -0.0190 nc         1 6JG      -0.561100
      5 C7          -3.4030    -0.1190     0.5660 ca         1 6JG      -0.142500
      6 C8           0.2310     2.0490    -0.2680 ca         1 6JG       0.158100
      7 N2           5.1520    -3.0160    -0.0960 nb         1 6JG      -0.668000
      8 C9          -0.5530     3.2070    -0.1060 ca         1 6JG      -0.184000
      9 C10         -0.0590     4.3040     0.6140 ca         1 6JG      -0.057000
     10 C11          1.2330     4.2520     1.1580 ca         1 6JG      -0.150000
     11 C12          2.0250     3.1030     0.9900 ca         1 6JG      -0.033000
     12 C13          1.5260     1.9770     0.2940 ca         1 6JG      -0.158900
     13 C14          2.3860     0.7900     0.1050 cd         1 6JG       0.466800
     14 C15          4.2560    -0.3430    -0.0560 ca         1 6JG       0.135400
     15 O           -6.0830    -1.0260     1.7220 o          1 6JG      -0.574100
     16 C1          -6.2640    -1.4310     0.5790 c          1 6JG       0.609100
     17 C           -7.5470    -2.1600     0.1910 c3         1 6JG      -0.183100
     18 C2          -4.0730    -0.6830    -0.5440 ca         1 6JG      -0.015000
     19 C3          -3.4380    -0.6680    -1.8010 ca         1 6JG      -0.142500
     20 O1          -0.2540     1.0120    -1.0320 os         1 6JG      -0.259200
     21 S            1.7240    -0.8700     0.2350 ss         1 6JG       0.127800
     22 C19          3.3830    -1.4010     0.0630 ca         1 6JG      -0.284000
     23 C18          3.8360    -2.7250     0.0410 ca         1 6JG       0.389900
     24 C17          6.0200    -1.9780    -0.2120 ca         1 6JG       0.327900
     25 C16          5.6180    -0.6290    -0.1960 ca         1 6JG      -0.113000
     26 H1          -1.6820    -0.0930    -2.9310 ha         1 6JG       0.132500
     27 H2          -1.6230     0.8720     1.2790 ha         1 6JG       0.132500
     28 H3          -3.8480    -0.1180     1.5550 ha         1 6JG       0.134000
     29 H4          -1.5440     3.2600    -0.5520 ha         1 6JG       0.130000
     30 H5          -0.6680     5.1980     0.7380 ha         1 6JG       0.117000
     31 H6           1.6260     5.1050     1.7060 ha         1 6JG       0.122000
     32 H7           3.0270     3.0850     1.4160 ha         1 6JG       0.142000
     33 H8          -8.2440    -2.2660     1.0300 hc         1 6JG       0.066033
     34 H9          -8.0100    -1.6420    -0.6560 hc         1 6JG       0.066033
     35 H10         -7.2870    -3.1320    -0.2450 hc         1 6JG       0.066033
     36 H11         -5.6820    -1.6720    -1.3420 hn         1 6JG       0.150000
     37 H12         -3.9340    -1.1030    -2.6670 ha         1 6JG       0.134000
     38 H13          3.1470    -3.5640     0.1340 h4         1 6JG       0.026100
     39 H14          7.0720    -2.2380    -0.3200 h4         1 6JG       0.021100
     40 H15          6.3510     0.1650    -0.2910 ha         1 6JG       0.138000
     41 N           -5.3620    -1.2810    -0.4660 ns         1 6JG      -0.150000
@<TRIPOS>BOND
     1     1     2 ar  
     2     1    19 ar  
     3     1    26 1   
     4     2     3 ar  
     5     2    20 1   
     6     3     5 ar  
     7     3    27 1   
     8     4    13 2   
     9     4    14 1   
    10     5    18 ar  
    11     5    28 1   
    12     6     8 ar  
    13     6    12 ar  
    14     6    20 1   
    15     7    23 ar  
    16     7    24 ar  
    17     8     9 ar  
    18     8    29 1   
    19     9    10 ar  
    20     9    30 1   
    21    10    11 ar  
    22    10    31 1   
    23    11    12 ar  
    24    11    32 1   
    25    12    13 1   
    26    13    21 1   
    27    14    22 ar  
    28    14    25 ar  
    29    15    16 2   
    30    16    17 1   
    31    16    41 1   
    32    17    33 1   
    33    17    34 1   
    34    17    35 1   
    35    18    19 ar  
    36    18    41 1   
    37    19    37 1   
    38    21    22 1   
    39    22    23 ar  
    40    23    38 1   
    41    24    25 ar  
    42    24    39 1   
    43    25    40 1   
    44    36    41 1   
@<TRIPOS>SUBSTRUCTURE
     1 6JG         1 TEMP              0 ****  ****    0 ROOT
