@<TRIPOS>MOLECULE
6JG
   41    44     1     0     0
SMALL
bcc


@<TRIPOS>ATOM
      1 C4          -2.2690     0.0090    -1.6940 ca         1 6JG      -0.106500
      2 C5          -1.5620     0.1870    -0.5180 ca         1 6JG       0.066100
      3 C6          -2.1700    -0.0340     0.7060 ca         1 6JG      -0.106500
      4 N1           3.7580     0.9010     0.2610 nc         1 6JG      -0.561100
      5 C7          -3.4960    -0.4350     0.7660 ca         1 6JG      -0.160500
      6 C8           0.1890     1.7440    -0.1630 ca         1 6JG       0.158100
      7 N2           5.5400    -2.7970    -0.2340 nb         1 6JG      -0.668000
      8 C9          -0.6650     2.8330    -0.0300 ca         1 6JG      -0.202000
      9 C10         -0.1580     4.0560     0.3730 ca         1 6JG      -0.075000
     10 C11          1.1980     4.2030     0.6450 ca         1 6JG      -0.168000
     11 C12          2.0410     3.1180     0.5120 ca         1 6JG      -0.051000
     12 C13          1.5570     1.8670     0.1130 ca         1 6JG      -0.158900
     13 C14          2.4950     0.7510     0.0130 cd         1 6JG       0.466800
     14 C15          4.4390    -0.2720     0.1250 ca         1 6JG       0.135400
     15 O           -6.0800    -1.3550     1.7290 o          1 6JG      -0.574100
     16 C1          -6.3940    -1.3800     0.5530 c          1 6JG       0.676100
     17 C           -7.7520    -1.8390     0.0860 c3         1 6JG      -0.183100
     18 C2          -4.2230    -0.6260    -0.4120 ca         1 6JG       0.077600
     19 C3          -3.5890    -0.3990    -1.6370 ca         1 6JG      -0.160500
     20 O1          -0.2310     0.5310    -0.5880 os         1 6JG      -0.259200
     21 S            2.0130    -0.8770    -0.4270 ss         1 6JG       0.000900
     22 C19          3.6560    -1.3710    -0.2470 ca         1 6JG      -0.222400
     23 C18          4.2450    -2.6190    -0.4180 ca         1 6JG       0.455200
     24 C17          6.2930    -1.7470     0.1220 ca         1 6JG       0.393200
     25 C16          5.8070    -0.4710     0.3160 ca         1 6JG      -0.196300
     26 H1          -1.7950     0.1810    -2.6520 ha         1 6JG       0.150500
     27 H2          -1.6150     0.1040     1.6250 ha         1 6JG       0.150500
     28 H3          -3.9460    -0.6020     1.7290 ha         1 6JG       0.152000
     29 H4          -1.7200     2.7320    -0.2480 ha         1 6JG       0.148000
     30 H5          -0.8290     4.8980     0.4720 ha         1 6JG       0.135000
     31 H6           1.5930     5.1590     0.9590 ha         1 6JG       0.140000
     32 H7           3.0960     3.2240     0.7250 ha         1 6JG       0.160000
     33 H8          -8.4790    -1.7270     0.8870 hc         1 6JG       0.066033
     34 H9          -8.1010    -1.2910    -0.7880 hc         1 6JG       0.066033
     35 H10         -7.7040    -2.8960    -0.1840 hc         1 6JG       0.066033
     36 H11         -5.9400    -1.1080    -1.3920 hn         1 6JG       0.316500
     37 H12         -4.1360    -0.5430    -2.5610 ha         1 6JG       0.152000
     38 H13          3.6570    -3.4830    -0.7060 h4         1 6JG       0.026100
     39 H14          7.3490    -1.9460     0.2590 h4         1 6JG       0.021100
     40 H15          6.4610     0.3420     0.6020 ha         1 6JG       0.156000
     41 N           -5.5580    -1.0310    -0.4610 ns         1 6JG      -0.476100
@<TRIPOS>BOND
     1     1     2 ar  
     2     1    19 ar  
     3     1    26 1   
     4     2     3 ar  
     5     2    20 1   
     6     3     5 ar  
     7     3    27 1   
     8     4    13 2   
     9     4    14 1   
    10     5    18 ar  
    11     5    28 1   
    12     6     8 ar  
    13     6    12 ar  
    14     6    20 1   
    15     7    23 ar  
    16     7    24 ar  
    17     8     9 ar  
    18     8    29 1   
    19     9    10 ar  
    20     9    30 1   
    21    10    11 ar  
    22    10    31 1   
    23    11    12 ar  
    24    11    32 1   
    25    12    13 1   
    26    13    21 1   
    27    14    22 ar  
    28    14    25 ar  
    29    15    16 2   
    30    16    17 1   
    31    16    41 1   
    32    17    33 1   
    33    17    34 1   
    34    17    35 1   
    35    18    19 ar  
    36    18    41 1   
    37    19    37 1   
    38    21    22 1   
    39    22    23 ar  
    40    23    38 1   
    41    24    25 ar  
    42    24    39 1   
    43    25    40 1   
    44    36    41 1   
@<TRIPOS>SUBSTRUCTURE
     1 6JG         1 TEMP              0 ****  ****    0 ROOT
