@<TRIPOS>MOLECULE
6JH
   33    36     1     0     0
SMALL
No Charge or Current Charge


@<TRIPOS>ATOM
      1 C4          -3.1690     1.4030     1.5790 ca         1 6JH      -0.103500
      2 C5          -4.2040     2.3100     1.2920 ca         1 6JH      -0.101000
      3 C6          -1.4130    -1.4700     0.2290 ca         1 6JH       0.604300
      4 N1           2.2320    -1.3470     0.2030 nc         1 6JH      -0.560100
      5 C7          -0.1210    -1.7940    -0.2310 ca         1 6JH      -0.200900
      6 C8           0.0880    -3.0740    -0.7850 ca         1 6JH      -0.001000
      7 N2           4.6940     2.0600     0.0380 nb         1 6JH      -0.666000
      8 C9          -1.0060    -3.9420    -0.8950 ca         1 6JH      -0.209000
      9 C10         -2.2600    -3.5230    -0.4330 ca         1 6JH       0.395900
     10 C11          1.0040    -0.8640    -0.0610 cd         1 6JH       0.463800
     11 C12          3.0980    -0.2610     0.1690 ca         1 6JH       0.134400
     12 C13          4.4740    -0.3360     0.4120 ca         1 6JH      -0.112000
     13 C14          5.2310     0.8480     0.3370 ca         1 6JH       0.328900
     14 C15          3.3620     2.1170    -0.1980 ca         1 6JH       0.390900
     15 C16          2.5630     0.9690    -0.1360 ca         1 6JH      -0.284000
     16 S            0.8370     0.8850    -0.4180 ss         1 6JH       0.136800
     17 N           -2.4620    -2.3150     0.1310 nb         1 6JH      -0.736000
     18 O           -1.6160    -0.2760     0.8760 os         1 6JH      -0.381400
     19 C3          -2.6490     0.5810     0.5650 ca         1 6JH       0.111100
     20 C2          -3.1520     0.6840    -0.7490 ca         1 6JH      -0.103500
     21 C1          -4.1870     1.5920    -1.0350 ca         1 6JH      -0.101000
     22 C           -4.7140     2.4030    -0.0150 ca         1 6JH      -0.107000
     23 H1          -2.7700     1.3340     2.5870 ha         1 6JH       0.126500
     24 H2          -4.6080     2.9420     2.0800 ha         1 6JH       0.117000
     25 H3           1.0720    -3.3850    -1.1340 ha         1 6JH       0.148000
     26 H4          -0.8900    -4.9310    -1.3290 ha         1 6JH       0.133000
     27 H5          -3.1260    -4.1800    -0.5030 h4         1 6JH       0.025100
     28 H6           4.9500    -1.2800     0.6540 ha         1 6JH       0.139000
     29 H7           6.3050     0.8280     0.5210 h4         1 6JH       0.022100
     30 H8           2.9400     3.0920    -0.4390 h4         1 6JH       0.028100
     31 H9          -2.7450     0.0710    -1.5490 ha         1 6JH       0.126500
     32 H10         -4.5780     1.6700    -2.0480 ha         1 6JH       0.117000
     33 H11         -5.5150     3.1060    -0.2370 ha         1 6JH       0.116000
@<TRIPOS>BOND
     1     1     2 ar  
     2     1    19 ar  
     3     1    23 1   
     4     2    22 ar  
     5     2    24 1   
     6     3     5 ar  
     7     3    17 ar  
     8     3    18 1   
     9     4    10 2   
    10     4    11 1   
    11     5     6 ar  
    12     5    10 1   
    13     6     8 ar  
    14     6    25 1   
    15     7    13 ar  
    16     7    14 ar  
    17     8     9 ar  
    18     8    26 1   
    19     9    17 ar  
    20     9    27 1   
    21    10    16 1   
    22    11    12 ar  
    23    11    15 ar  
    24    12    13 ar  
    25    12    28 1   
    26    13    29 1   
    27    14    15 ar  
    28    14    30 1   
    29    15    16 1   
    30    18    19 1   
    31    19    20 ar  
    32    20    21 ar  
    33    20    31 1   
    34    21    22 ar  
    35    21    32 1   
    36    22    33 1   
@<TRIPOS>SUBSTRUCTURE
     1 6JH         1 TEMP              0 ****  ****    0 ROOT
