@<TRIPOS>MOLECULE
6JH
   33    36     1     0     0
SMALL
bcc


@<TRIPOS>ATOM
      1 C4          -3.3560     1.0950     1.2610 ca         1 6JH      -0.121500
      2 C5          -4.5860     1.7390     1.2320 ca         1 6JH      -0.119000
      3 C6          -1.3430    -1.1130    -0.0400 ca         1 6JH       0.669600
      4 N1           2.3500    -1.2940    -0.0940 nc         1 6JH      -0.560100
      5 C7          -0.0320    -1.6140    -0.0930 ca         1 6JH      -0.266200
      6 C8           0.0940    -2.9950    -0.2230 ca         1 6JH      -0.019000
      7 N2           5.0320     1.8370     0.2070 nb         1 6JH      -0.666000
      8 C9          -1.0360    -3.7910    -0.2930 ca         1 6JH      -0.292300
      9 C10         -2.2730    -3.1720    -0.2300 ca         1 6JH       0.461200
     10 C11          1.1630    -0.7810    -0.0230 cd         1 6JH       0.463800
     11 C12          3.3140    -0.3340    -0.0050 ca         1 6JH       0.134400
     12 C13          4.6950    -0.5300    -0.0470 ca         1 6JH      -0.195300
     13 C14          5.4950     0.5880     0.0630 ca         1 6JH       0.394200
     14 C15          3.7280     2.0340     0.2470 ca         1 6JH       0.456200
     15 C16          2.8340     0.9740     0.1440 ca         1 6JH      -0.222400
     16 S            1.1100     0.9600     0.1640 ss         1 6JH       0.009900
     17 N           -2.4200    -1.8570    -0.1060 nb         1 6JH      -0.736000
     18 O           -1.4750     0.2150     0.0930 os         1 6JH      -0.381400
     19 C3          -2.7310     0.7900     0.0650 ca         1 6JH       0.111100
     20 C2          -3.3040     1.1110    -1.1550 ca         1 6JH      -0.121500
     21 C1          -4.5340     1.7530    -1.1710 ca         1 6JH      -0.119000
     22 C           -5.1770     2.0670     0.0200 ca         1 6JH      -0.125000
     23 H1          -2.8870     0.8390     2.2030 ha         1 6JH       0.144500
     24 H2          -5.0810     1.9810     2.1630 ha         1 6JH       0.135000
     25 H3           1.0800    -3.4340    -0.2700 ha         1 6JH       0.166000
     26 H4          -0.9600    -4.8640    -0.3920 ha         1 6JH       0.151000
     27 H5          -3.1850    -3.7530    -0.2820 h4         1 6JH       0.025100
     28 H6           5.1200    -1.5180    -0.1620 ha         1 6JH       0.157000
     29 H7           6.5730     0.4810     0.0340 h4         1 6JH       0.022100
     30 H8           3.3780     3.0540     0.3630 h4         1 6JH       0.028100
     31 H9          -2.7950     0.8710    -2.0790 ha         1 6JH       0.144500
     32 H10         -4.9890     2.0070    -2.1190 ha         1 6JH       0.135000
     33 H11         -6.1350     2.5710     0.0020 ha         1 6JH       0.134000
@<TRIPOS>BOND
     1     1     2 ar  
     2     1    19 ar  
     3     1    23 1   
     4     2    22 ar  
     5     2    24 1   
     6     3     5 ar  
     7     3    17 ar  
     8     3    18 1   
     9     4    10 2   
    10     4    11 1   
    11     5     6 ar  
    12     5    10 1   
    13     6     8 ar  
    14     6    25 1   
    15     7    13 ar  
    16     7    14 ar  
    17     8     9 ar  
    18     8    26 1   
    19     9    17 ar  
    20     9    27 1   
    21    10    16 1   
    22    11    12 ar  
    23    11    15 ar  
    24    12    13 ar  
    25    12    28 1   
    26    13    29 1   
    27    14    15 ar  
    28    14    30 1   
    29    15    16 1   
    30    18    19 1   
    31    19    20 ar  
    32    20    21 ar  
    33    20    31 1   
    34    21    22 ar  
    35    21    32 1   
    36    22    33 1   
@<TRIPOS>SUBSTRUCTURE
     1 6JH         1 TEMP              0 ****  ****    0 ROOT
