@<TRIPOS>MOLECULE
6JI
   60    65     1     0     0
SMALL
No Charge or Current Charge


@<TRIPOS>ATOM
      1 O4          28.1860    37.1170    43.0690 op         1 6JI      -0.432000
      2 C4          30.0380    30.5320    46.3510 c6         1 6JI      -0.106400
      3 C3          30.0880    32.0790    46.4370 c6         1 6JI      -0.062400
      4 O3          28.6030    38.7130    49.8050 os         1 6JI      -0.329200
      5 C2          30.0400    32.7710    45.0240 c6         1 6JI      -0.028000
      6 O2          28.3730    40.8250    50.5710 o          1 6JI      -0.490000
      7 C1          31.4540    32.6130    44.3520 c3         1 6JI      -0.086100
      8 O1          28.9840    28.8860    44.8830 oh         1 6JI      -0.659000
      9 C10         29.5900    35.0900    43.8650 c6         1 6JI      -0.032700
     10 C11         29.6940    34.3210    45.2250 c6         1 6JI      -0.045700
     11 C12         30.6030    35.0950    46.2440 c6         1 6JI      -0.070400
     12 C13         30.6980    36.6450    45.9530 c6         1 6JI      -0.069400
     13 C14         29.4310    37.3440    45.3080 c5         1 6JI      -0.030000
     14 C15         29.8690    38.7550    44.8080 c3         1 6JI      -0.074100
     15 C16         28.1750    37.3290    46.2590 c5         1 6JI       0.005500
     16 C17         28.2380    38.3020    47.4390 cc         1 6JI      -0.197200
     17 C18         27.9510    39.6800    47.1910 cc         1 6JI      -0.072000
     18 C19         28.0020    40.5250    48.2640 cd         1 6JI      -0.343200
     19 C20         28.3330    40.0540    49.6220 c          1 6JI       0.659300
     20 C21         28.5460    37.8620    48.7150 cd         1 6JI       0.048100
     21 C22         26.9860    37.5270    45.2680 c5         1 6JI      -0.070400
     22 C23         27.3940    36.5640    44.1460 cx         1 6JI       0.079300
     23 C24         28.8990    36.4560    44.1430 cx         1 6JI       0.108000
     24 C5          28.7160    30.0210    45.7130 c6         1 6JI       0.175300
     25 C6          27.9790    31.1210    44.8990 c6         1 6JI      -0.065400
     26 C7          28.9510    32.0290    44.0910 c6         1 6JI      -0.047700
     27 C8          28.1160    33.0410    43.2440 c6         1 6JI      -0.076400
     28 C9          28.9610    34.2240    42.7160 c6         1 6JI      -0.064400
     29 H1          30.1410    30.1060    47.3590 hc         1 6JI       0.041200
     30 H2          30.9070    30.1680    45.7870 hc         1 6JI       0.041200
     31 H3          30.9960    32.3790    46.9780 hc         1 6JI       0.038200
     32 H4          29.2500    32.4260    47.0580 hc         1 6JI       0.038200
     33 H5          32.2610    33.0020    44.9820 hc         1 6JI       0.036700
     34 H6          31.6940    31.5620    44.1560 hc         1 6JI       0.036700
     35 H7          31.5230    33.1280    43.3890 hc         1 6JI       0.036700
     36 H8          29.4020    28.2110    45.4610 ho         1 6JI       0.438000
     37 H9          30.6110    35.3330    43.5400 hc         1 6JI       0.065700
     38 H10         28.6850    34.3350    45.6610 hc         1 6JI       0.045700
     39 H11         30.2080    34.9420    47.2580 hc         1 6JI       0.040200
     40 H12         31.6220    34.6910    46.2620 hc         1 6JI       0.040200
     41 H13         31.5530    36.7950    45.2790 hc         1 6JI       0.046200
     42 H14         30.9750    37.1680    46.8780 hc         1 6JI       0.046200
     43 H15         30.2690    39.3620    45.6280 hc         1 6JI       0.040700
     44 H16         30.6570    38.6740    44.0500 hc         1 6JI       0.040700
     45 H17         29.0440    39.3130    44.3520 hc         1 6JI       0.040700
     46 H18         28.0660    36.3240    46.6850 hc         1 6JI       0.049700
     47 H19         27.7100    40.0540    46.2000 ha         1 6JI       0.202000
     48 H20         27.8000    41.5870    48.1620 ha         1 6JI       0.215000
     49 H21         28.7700    36.8310    48.9750 h4         1 6JI       0.224000
     50 H22         26.8790    38.5450    44.8850 hc         1 6JI       0.059200
     51 H23         26.0270    37.2510    45.7220 hc         1 6JI       0.059200
     52 H24         26.7870    35.6960    43.8890 h1         1 6JI       0.100700
     53 H25         28.0390    29.7180    46.5260 h1         1 6JI       0.027700
     54 H26         27.3930    31.7430    45.5910 hc         1 6JI       0.045700
     55 H27         27.2450    30.6560    44.2270 hc         1 6JI       0.045700
     56 H28         29.4810    31.3750    43.3840 hc         1 6JI       0.062700
     57 H29         27.2820    33.4360    43.8400 hc         1 6JI       0.037700
     58 H30         27.6540    32.5140    42.3980 hc         1 6JI       0.037700
     59 H31         29.7630    33.8210    42.0830 hc         1 6JI       0.047200
     60 H32         28.3550    34.8360    42.0350 hc         1 6JI       0.047200
@<TRIPOS>BOND
     1     1    22 1   
     2     1    23 1   
     3     2     3 1   
     4     2    24 1   
     5     2    29 1   
     6     2    30 1   
     7     3     5 1   
     8     3    31 1   
     9     3    32 1   
    10     4    19 1   
    11     4    20 1   
    12     5     7 1   
    13     5    10 1   
    14     5    26 1   
    15     6    19 2   
    16     7    33 1   
    17     7    34 1   
    18     7    35 1   
    19     8    24 1   
    20     8    36 1   
    21     9    10 1   
    22     9    23 1   
    23     9    28 1   
    24     9    37 1   
    25    10    11 1   
    26    10    38 1   
    27    11    12 1   
    28    11    39 1   
    29    11    40 1   
    30    12    13 1   
    31    12    41 1   
    32    12    42 1   
    33    13    14 1   
    34    13    15 1   
    35    13    23 1   
    36    14    43 1   
    37    14    44 1   
    38    14    45 1   
    39    15    16 1   
    40    15    21 1   
    41    15    46 1   
    42    16    17 1   
    43    16    20 2   
    44    17    18 2   
    45    17    47 1   
    46    18    19 1   
    47    18    48 1   
    48    20    49 1   
    49    21    22 1   
    50    21    50 1   
    51    21    51 1   
    52    22    23 1   
    53    22    52 1   
    54    24    25 1   
    55    24    53 1   
    56    25    26 1   
    57    25    54 1   
    58    25    55 1   
    59    26    27 1   
    60    26    56 1   
    61    27    28 1   
    62    27    57 1   
    63    27    58 1   
    64    28    59 1   
    65    28    60 1   
@<TRIPOS>SUBSTRUCTURE
     1 6JI         1 TEMP              0 ****  ****    0 ROOT
