@<TRIPOS>MOLECULE
6JI
   60    65     1     0     0
SMALL
bcc


@<TRIPOS>ATOM
      1 O4          27.8010    37.1760    43.9870 op         1 6JI      -0.385600
      2 C4          29.8940    30.1790    45.9310 c6         1 6JI      -0.106400
      3 C3          29.1730    31.5070    46.1690 c6         1 6JI      -0.062400
      4 O3          29.5410    40.5490    48.8580 os         1 6JI      -0.329200
      5 C2          29.5930    32.6210    45.2020 c6         1 6JI      -0.028000
      6 O2          29.8300    42.7040    48.5160 o          1 6JI      -0.565500
      7 C1          31.0980    32.8780    45.3290 c3         1 6JI      -0.086100
      8 O1          31.2770    29.8920    43.8930 oh         1 6JI      -0.596800
      9 C10         28.8790    34.9090    44.3720 c6         1 6JI      -0.032700
     10 C11         28.7960    33.9080    45.5390 c6         1 6JI      -0.045700
     11 C12         29.1710    34.5790    46.8810 c6         1 6JI      -0.070400
     12 C13         30.0290    35.8270    46.7080 c6         1 6JI      -0.069400
     13 C14         29.2890    36.9230    45.9220 c5         1 6JI      -0.030000
     14 C15         30.3190    37.8340    45.2610 c3         1 6JI      -0.074100
     15 C16         28.2650    37.6660    46.8590 c5         1 6JI       0.005500
     16 C17         28.6530    39.0600    47.2480 cc         1 6JI      -0.197200
     17 C18         28.5170    40.1830    46.3690 cc         1 6JI      -0.022000
     18 C19         28.8940    41.4220    46.7510 cd         1 6JI      -0.293200
     19 C20         29.4490    41.6530    48.0600 c          1 6JI       0.734800
     20 C21         29.1610    39.3240    48.4650 cd         1 6JI       0.098100
     21 C22         26.8580    37.5590    46.2190 c5         1 6JI      -0.070400
     22 C23         27.0160    36.6330    45.0470 cx         1 6JI       0.056100
     23 C24         28.4090    36.2480    44.8730 cx         1 6JI       0.084800
     24 C5          29.9740    29.7790    44.4430 c6         1 6JI       0.152100
     25 C6          29.0410    30.6460    43.6210 c6         1 6JI      -0.065400
     26 C7          29.2630    32.1610    43.7390 c6         1 6JI      -0.047700
     27 C8          28.0260    32.8560    43.1710 c6         1 6JI      -0.076400
     28 C9          28.1330    34.3780    43.1420 c6         1 6JI      -0.064400
     29 H1          29.3710    29.3980    46.4880 hc         1 6JI       0.041200
     30 H2          30.9020    30.2180    46.3530 hc         1 6JI       0.041200
     31 H3          29.3400    31.8190    47.2040 hc         1 6JI       0.038200
     32 H4          28.0920    31.3550    46.0770 hc         1 6JI       0.038200
     33 H5          31.3930    33.0790    46.3610 hc         1 6JI       0.036700
     34 H6          31.6740    32.0230    44.9840 hc         1 6JI       0.036700
     35 H7          31.4100    33.7320    44.7240 hc         1 6JI       0.036700
     36 H8          31.8760    29.3660    44.4320 ho         1 6JI       0.399000
     37 H9          29.9340    35.0290    44.0950 hc         1 6JI       0.065700
     38 H10         27.7430    33.6140    45.6240 hc         1 6JI       0.045700
     39 H11         28.2520    34.8560    47.4070 hc         1 6JI       0.040200
     40 H12         29.6780    33.8760    47.5450 hc         1 6JI       0.040200
     41 H13         30.9530    35.5650    46.1850 hc         1 6JI       0.046200
     42 H14         30.3360    36.2210    47.6810 hc         1 6JI       0.046200
     43 H15         30.9820    38.2800    46.0050 hc         1 6JI       0.040700
     44 H16         30.9450    37.2540    44.5790 hc         1 6JI       0.040700
     45 H17         29.8730    38.6420    44.6840 hc         1 6JI       0.040700
     46 H18         28.2300    37.0920    47.7890 hc         1 6JI       0.049700
     47 H19         28.1010    40.0360    45.3800 ha         1 6JI       0.152000
     48 H20         28.7950    42.2750    46.0940 ha         1 6JI       0.165000
     49 H21         29.3090    38.5820    49.2390 h4         1 6JI       0.174000
     50 H22         26.4500    38.5230    45.9060 hc         1 6JI       0.059200
     51 H23         26.1480    37.1420    46.9350 hc         1 6JI       0.059200
     52 H24         26.1840    36.0030    44.7400 h1         1 6JI       0.100700
     53 H25         29.6390    28.7370    44.3440 h1         1 6JI       0.027700
     54 H26         28.0210    30.4150    43.9480 hc         1 6JI       0.045700
     55 H27         29.0880    30.3510    42.5690 hc         1 6JI       0.045700
     56 H28         30.1130    32.4340    43.1020 hc         1 6JI       0.062700
     57 H29         27.1540    32.5570    43.7620 hc         1 6JI       0.037700
     58 H30         27.8340    32.4820    42.1610 hc         1 6JI       0.037700
     59 H31         28.6540    34.6990    42.2380 hc         1 6JI       0.047200
     60 H32         27.1260    34.7950    43.0740 hc         1 6JI       0.047200
@<TRIPOS>BOND
     1     1    22 1   
     2     1    23 1   
     3     2     3 1   
     4     2    24 1   
     5     2    29 1   
     6     2    30 1   
     7     3     5 1   
     8     3    31 1   
     9     3    32 1   
    10     4    19 1   
    11     4    20 1   
    12     5     7 1   
    13     5    10 1   
    14     5    26 1   
    15     6    19 2   
    16     7    33 1   
    17     7    34 1   
    18     7    35 1   
    19     8    24 1   
    20     8    36 1   
    21     9    10 1   
    22     9    23 1   
    23     9    28 1   
    24     9    37 1   
    25    10    11 1   
    26    10    38 1   
    27    11    12 1   
    28    11    39 1   
    29    11    40 1   
    30    12    13 1   
    31    12    41 1   
    32    12    42 1   
    33    13    14 1   
    34    13    15 1   
    35    13    23 1   
    36    14    43 1   
    37    14    44 1   
    38    14    45 1   
    39    15    16 1   
    40    15    21 1   
    41    15    46 1   
    42    16    17 1   
    43    16    20 2   
    44    17    18 2   
    45    17    47 1   
    46    18    19 1   
    47    18    48 1   
    48    20    49 1   
    49    21    22 1   
    50    21    50 1   
    51    21    51 1   
    52    22    23 1   
    53    22    52 1   
    54    24    25 1   
    55    24    53 1   
    56    25    26 1   
    57    25    54 1   
    58    25    55 1   
    59    26    27 1   
    60    26    56 1   
    61    27    28 1   
    62    27    57 1   
    63    27    58 1   
    64    28    59 1   
    65    28    60 1   
@<TRIPOS>SUBSTRUCTURE
     1 6JI         1 TEMP              0 ****  ****    0 ROOT
