@<TRIPOS>MOLECULE
6JJ
   31    34     1     0     0
SMALL
abcg2


@<TRIPOS>ATOM
      1 C4          -3.1270    -1.0130    -1.1910 ca         1 6JJ      -0.113500
      2 C5          -4.3810    -1.5960    -1.3120 ca         1 6JJ      -0.100500
      3 C6          -1.1360     1.0000     0.1490 ca         1 6JJ       0.188100
      4 N1           2.5970    -1.1300     0.2110 na         1 6JJ      -0.135200
      5 C7          -2.1900     1.9050     0.2080 ca         1 6JJ      -0.192000
      6 C8          -1.9410     3.2670     0.1510 ca         1 6JJ      -0.049000
      7 N2           4.3970    -2.2810    -0.0760 nc         1 6JJ      -0.354000
      8 C9          -0.6440     3.7470     0.0310 ca         1 6JJ      -0.145000
      9 C10          0.4040     2.8480    -0.0320 ca         1 6JJ      -0.055000
     10 C11          0.1810     1.4710     0.0230 ca         1 6JJ      -0.192500
     11 C12          1.3180     0.5610    -0.0690 cc         1 6JJ       0.508900
     12 N3           4.5340    -1.1350    -0.8040 nc         1 6JJ      -0.307000
     13 C13          3.2440    -2.2780     0.5290 cd         1 6JJ       0.424400
     14 C14          3.4400    -0.4620    -0.6140 cd         1 6JJ       0.382900
     15 N            1.4170    -0.5730     0.5280 nd         1 6JJ      -0.399800
     16 S            2.6970     1.0170    -1.0860 ss         1 6JJ      -0.193800
     17 O           -1.3090    -0.3370     0.2030 os         1 6JJ      -0.235200
     18 C3          -2.5740    -0.8650     0.0720 ca         1 6JJ       0.087100
     19 C2          -3.2470    -1.2830     1.2090 ca         1 6JJ      -0.113500
     20 C1          -4.5000    -1.8670     1.0730 ca         1 6JJ      -0.100500
     21 C           -5.0690    -2.0230    -0.1830 ca         1 6JJ      -0.107000
     22 H1          -2.5840    -0.6860    -2.0680 ha         1 6JJ       0.131000
     23 H2          -4.8180    -1.7200    -2.2940 ha         1 6JJ       0.119500
     24 H3          -3.2090     1.5540     0.3010 ha         1 6JJ       0.133000
     25 H4          -2.7730     3.9560     0.2030 ha         1 6JJ       0.120000
     26 H5          -0.4510     4.8100    -0.0060 ha         1 6JJ       0.125000
     27 H6           1.4170     3.2240    -0.1070 ha         1 6JJ       0.125000
     28 H7           2.8470    -3.0410     1.1770 h5         1 6JJ       0.082100
     29 H8          -2.7970    -1.1560     2.1850 ha         1 6JJ       0.131000
     30 H9          -5.0310    -2.1970     1.9560 ha         1 6JJ       0.119500
     31 H10         -6.0450    -2.4800    -0.2850 ha         1 6JJ       0.119000
@<TRIPOS>BOND
     1     1     2 ar  
     2     1    18 ar  
     3     1    22 1   
     4     2    21 ar  
     5     2    23 1   
     6     3     5 ar  
     7     3    10 ar  
     8     3    17 1   
     9     4    13 1   
    10     4    14 1   
    11     4    15 1   
    12     5     6 ar  
    13     5    24 1   
    14     6     8 ar  
    15     6    25 1   
    16     7    12 1   
    17     7    13 2   
    18     8     9 ar  
    19     8    26 1   
    20     9    10 ar  
    21     9    27 1   
    22    10    11 1   
    23    11    15 2   
    24    11    16 1   
    25    12    14 2   
    26    13    28 1   
    27    14    16 1   
    28    17    18 1   
    29    18    19 ar  
    30    19    20 ar  
    31    19    29 1   
    32    20    21 ar  
    33    20    30 1   
    34    21    31 1   
@<TRIPOS>SUBSTRUCTURE
     1 6JJ         1 TEMP              0 ****  ****    0 ROOT
