@<TRIPOS>MOLECULE
6JJ
   31    34     1     0     0
SMALL
No Charge or Current Charge


@<TRIPOS>ATOM
      1 C4          -3.0200    -0.5570    -0.8670 ca         1 6JJ      -0.113500
      2 C5          -4.1200    -1.3160    -1.3030 ca         1 6JJ      -0.100500
      3 C6          -1.1330     1.2390     0.4660 ca         1 6JJ       0.188100
      4 N1           2.6050    -0.9670     0.5420 na         1 6JJ      -0.135200
      5 C7          -2.1580     2.2030     0.5230 ca         1 6JJ      -0.192000
      6 C8          -1.9240     3.5170     0.0950 ca         1 6JJ      -0.049000
      7 N2           3.6890    -2.7150    -0.1850 nc         1 6JJ      -0.354000
      8 C9          -0.6560     3.8740    -0.3860 ca         1 6JJ      -0.145000
      9 C10          0.3750     2.9200    -0.4390 ca         1 6JJ      -0.055000
     10 C11          0.1500     1.5880    -0.0210 ca         1 6JJ      -0.192500
     11 C12          1.2630     0.6300    -0.0500 cc         1 6JJ       0.508900
     12 N3           3.8200    -1.6860    -1.1310 nc         1 6JJ      -0.307000
     13 C13          2.8850    -2.2840     0.8000 cd         1 6JJ       0.424400
     14 C14          3.1950    -0.6470    -0.6070 cd         1 6JJ       0.382900
     15 N            1.4250    -0.3430     0.8620 nd         1 6JJ      -0.399800
     16 S            2.4020     0.6530    -1.4140 ss         1 6JJ      -0.193800
     17 O           -1.4030    -0.0470     0.8760 os         1 6JJ      -0.235200
     18 C3          -2.4890    -0.7630     0.4230 ca         1 6JJ       0.087100
     19 C2          -3.0490    -1.7420     1.2620 ca         1 6JJ      -0.113500
     20 C1          -4.1490    -2.5000     0.8250 ca         1 6JJ      -0.100500
     21 C           -4.6860    -2.2850    -0.4570 ca         1 6JJ      -0.107000
     22 H1          -2.5820     0.1830    -1.5330 ha         1 6JJ       0.131000
     23 H2          -4.5320    -1.1550    -2.2970 ha         1 6JJ       0.119500
     24 H3          -3.1400     1.9280     0.9010 ha         1 6JJ       0.133000
     25 H4          -2.7200     4.2580     0.1390 ha         1 6JJ       0.120000
     26 H5          -0.4680     4.8940    -0.7130 ha         1 6JJ       0.125000
     27 H6           1.3550     3.2300    -0.7990 ha         1 6JJ       0.125000
     28 H7           2.4820    -2.8400     1.6360 h5         1 6JJ       0.082100
     29 H8          -2.6310    -1.9090     2.2520 ha         1 6JJ       0.131000
     30 H9          -4.5840    -3.2540     1.4780 ha         1 6JJ       0.119500
     31 H10         -5.5370    -2.8730    -0.7950 ha         1 6JJ       0.119000
@<TRIPOS>BOND
     1     1     2 ar  
     2     1    18 ar  
     3     1    22 1   
     4     2    21 ar  
     5     2    23 1   
     6     3     5 ar  
     7     3    10 ar  
     8     3    17 1   
     9     4    13 1   
    10     4    14 1   
    11     4    15 1   
    12     5     6 ar  
    13     5    24 1   
    14     6     8 ar  
    15     6    25 1   
    16     7    12 1   
    17     7    13 2   
    18     8     9 ar  
    19     8    26 1   
    20     9    10 ar  
    21     9    27 1   
    22    10    11 1   
    23    11    15 2   
    24    11    16 1   
    25    12    14 2   
    26    13    28 1   
    27    14    16 1   
    28    17    18 1   
    29    18    19 ar  
    30    19    20 ar  
    31    19    29 1   
    32    20    21 ar  
    33    20    30 1   
    34    21    31 1   
@<TRIPOS>SUBSTRUCTURE
     1 6JJ         1 TEMP              0 ****  ****    0 ROOT
