@<TRIPOS>MOLECULE
6JM
   31    33     1     0     0
SMALL
No Charge or Current Charge


@<TRIPOS>ATOM
      1 CAN         -2.5690    -0.5250    -0.4870 ca         1 6JM      -0.113000
      2 CAO         -3.9480    -0.2500    -0.5280 ca         1 6JM       0.034100
      3 OAQ         -4.7840    -1.0150    -1.3030 oh         1 6JM      -0.559100
      4 CAP         -4.4720     0.8180     0.2270 ca         1 6JM       0.143100
      5 OAR         -5.8100     1.0780     0.1810 oh         1 6JM      -0.529100
      6 CAK         -3.6240     1.6080     1.0150 ca         1 6JM      -0.136000
      7 CAL         -2.2450     1.3320     1.0550 ca         1 6JM      -0.067000
      8 CAM         -1.7070     0.2590     0.3130 ca         1 6JM      -0.056800
      9 CAJ         -0.2640    -0.0030     0.3510 cc         1 6JM       0.154900
     10 OAG          0.5760     1.1020     0.3510 os         1 6JM      -0.198200
     11 CAF          1.9160     0.8660     0.0830 ca         1 6JM       0.130100
     12 CAA          2.7040     1.9800    -0.2600 ca         1 6JM      -0.109000
     13 CAB          4.0820     1.8380    -0.4990 ca         1 6JM      -0.079000
     14 CAC          4.6880     0.5790    -0.3840 ca         1 6JM       0.105100
     15 OAU          6.0270     0.4490    -0.6150 oh         1 6JM      -0.530100
     16 CAD          3.9150    -0.5390    -0.0270 ca         1 6JM      -0.125000
     17 CAE          2.5270    -0.3950     0.2090 ca         1 6JM      -0.191600
     18 CAH          1.6830    -1.5510     0.5860 c          1 6JM       0.564900
     19 OAT          2.1460    -2.6610     0.8330 o          1 6JM      -0.562100
     20 CAI          0.2300    -1.2790     0.6000 cd         1 6JM      -0.083100
     21 OAS         -0.5480    -2.3800     0.8440 oh         1 6JM      -0.523100
     22 H1          -2.1590    -1.3410    -1.0770 ha         1 6JM       0.131000
     23 H2          -4.2590    -1.7150    -1.7510 ho         1 6JM       0.479000
     24 H3          -6.1910     0.4070    -0.4280 ho         1 6JM       0.486000
     25 H4          -4.0310     2.4340     1.5930 ha         1 6JM       0.134000
     26 H5          -1.5950     1.9510     1.6690 ha         1 6JM       0.127000
     27 H6           2.2400     2.9600    -0.3400 ha         1 6JM       0.139000
     28 H7           4.6790     2.7060    -0.7690 ha         1 6JM       0.137000
     29 H8           6.2820    -0.4910    -0.4890 ho         1 6JM       0.470000
     30 H9           4.3830    -1.5170     0.0670 ha         1 6JM       0.139000
     31 H10          0.0650    -3.1410     0.9870 ho         1 6JM       0.487000
@<TRIPOS>BOND
     1     1     2 ar  
     2     1     8 ar  
     3     1    22 1   
     4     2     3 1   
     5     2     4 ar  
     6     3    23 1   
     7     4     5 1   
     8     4     6 ar  
     9     5    24 1   
    10     6     7 ar  
    11     6    25 1   
    12     7     8 ar  
    13     7    26 1   
    14     8     9 1   
    15     9    10 1   
    16     9    20 2   
    17    10    11 1   
    18    11    12 ar  
    19    11    17 ar  
    20    12    13 ar  
    21    12    27 1   
    22    13    14 ar  
    23    13    28 1   
    24    14    15 1   
    25    14    16 ar  
    26    15    29 1   
    27    16    17 ar  
    28    16    30 1   
    29    17    18 1   
    30    18    19 2   
    31    18    20 1   
    32    20    21 1   
    33    21    31 1   
@<TRIPOS>SUBSTRUCTURE
     1 6JM         1 TEMP              0 ****  ****    0 ROOT
