@<TRIPOS>MOLECULE
6JM
   31    33     1     0     0
SMALL
bcc


@<TRIPOS>ATOM
      1 CAN         -2.6510    -0.6650    -0.3510 ca         1 6JM      -0.131000
      2 CAO         -3.9870    -0.3130    -0.3140 ca         1 6JM       0.034100
      3 OAQ         -4.9830    -1.0760    -0.8160 oh         1 6JM      -0.520100
      4 CAP         -4.3800     0.9040     0.2630 ca         1 6JM       0.143100
      5 OAR         -5.6700     1.2730     0.3210 oh         1 6JM      -0.490100
      6 CAK         -3.4090     1.7480     0.7810 ca         1 6JM      -0.154000
      7 CAL         -2.0690     1.3990     0.7350 ca         1 6JM      -0.085000
      8 CAM         -1.6730     0.1840     0.1780 ca         1 6JM      -0.056800
      9 CAJ         -0.2550    -0.1730     0.1370 cc         1 6JM       0.154900
     10 OAG          0.5410     0.9010    -0.0210 os         1 6JM      -0.198200
     11 CAF          1.8810     0.7900    -0.0420 ca         1 6JM       0.130100
     12 CAA          2.6210     1.9630    -0.1990 ca         1 6JM      -0.127000
     13 CAB          3.9920     1.8930    -0.2320 ca         1 6JM      -0.097000
     14 CAC          4.6540     0.6580    -0.1080 ca         1 6JM       0.105100
     15 OAU          5.9990     0.6810    -0.1470 oh         1 6JM      -0.491100
     16 CAD          3.9180    -0.4970     0.0460 ca         1 6JM      -0.143000
     17 CAE          2.5180    -0.4380     0.0780 ca         1 6JM      -0.191600
     18 CAH          1.7100    -1.6340     0.2460 c          1 6JM       0.564900
     19 OAT          2.1670    -2.7680     0.3760 o          1 6JM      -0.562100
     20 CAI          0.2780    -1.4150     0.2760 cd         1 6JM      -0.083100
     21 OAS         -0.4990    -2.4940     0.4740 oh         1 6JM      -0.484100
     22 H1          -2.3730    -1.6010    -0.8180 ha         1 6JM       0.149000
     23 H2          -4.6410    -1.8970    -1.1850 ho         1 6JM       0.440000
     24 H3          -6.2380     0.5920    -0.0600 ho         1 6JM       0.447000
     25 H4          -3.7110     2.6870     1.2260 ha         1 6JM       0.152000
     26 H5          -1.3410     2.0800     1.1550 ha         1 6JM       0.145000
     27 H6           2.1160     2.9150    -0.2960 ha         1 6JM       0.157000
     28 H7           4.5740     2.7970    -0.3550 ha         1 6JM       0.155000
     29 H8           6.3560    -0.2070    -0.0370 ho         1 6JM       0.431000
     30 H9           4.4070    -1.4590     0.1450 ha         1 6JM       0.157000
     31 H10          0.0870    -3.2620     0.5500 ho         1 6JM       0.448000
@<TRIPOS>BOND
     1     1     2 ar  
     2     1     8 ar  
     3     1    22 1   
     4     2     3 1   
     5     2     4 ar  
     6     3    23 1   
     7     4     5 1   
     8     4     6 ar  
     9     5    24 1   
    10     6     7 ar  
    11     6    25 1   
    12     7     8 ar  
    13     7    26 1   
    14     8     9 1   
    15     9    10 1   
    16     9    20 2   
    17    10    11 1   
    18    11    12 ar  
    19    11    17 ar  
    20    12    13 ar  
    21    12    27 1   
    22    13    14 ar  
    23    13    28 1   
    24    14    15 1   
    25    14    16 ar  
    26    15    29 1   
    27    16    17 ar  
    28    16    30 1   
    29    17    18 1   
    30    18    19 2   
    31    18    20 1   
    32    20    21 1   
    33    21    31 1   
@<TRIPOS>SUBSTRUCTURE
     1 6JM         1 TEMP              0 ****  ****    0 ROOT
