@<TRIPOS>MOLECULE
6JN
   14    13     1     0     0
SMALL
abcg2


@<TRIPOS>ATOM
      1 CAA         -1.0210    -0.7540     0.4500 c3         1 6JN      -0.314400
      2 CAB         -2.4690    -0.3570     0.1130 c          1 6JN       0.730500
      3 CAC         -0.0230     0.0460    -0.3510 c          1 6JN       0.635100
      4 CAD          1.2840    -0.6130    -0.6800 c3         1 6JN      -0.314400
      5 CAE          2.2430    -0.6340     0.5400 c          1 6JN       0.730500
      6 OAF          3.3000    -1.2660     0.3780 o          1 6JN      -0.754000
      7 OAG          1.8970     0.0240     1.5390 o          1 6JN      -0.754000
      8 OAH         -0.2630     1.1900    -0.6810 o          1 6JN      -0.594100
      9 OAI         -3.0630     0.3870     0.9180 o          1 6JN      -0.754000
     10 OAJ         -2.9010    -0.7680    -0.9830 o          1 6JN      -0.754000
     11 H1          -0.7800    -0.5610     1.5010 hc         1 6JN       0.035950
     12 H2          -0.8560    -1.8210     0.2800 hc         1 6JN       0.035950
     13 H3           1.1250    -1.6390    -1.0190 hc         1 6JN       0.035950
     14 H4           1.7740    -0.0740    -1.4970 hc         1 6JN       0.035950
@<TRIPOS>BOND
     1     1     2 1   
     2     1     3 1   
     3     1    11 1   
     4     1    12 1   
     5     2     9 1   
     6     2    10 1   
     7     3     4 1   
     8     3     8 2   
     9     4     5 1   
    10     4    13 1   
    11     4    14 1   
    12     5     6 1   
    13     5     7 1   
@<TRIPOS>SUBSTRUCTURE
     1 6JN         1 TEMP              0 ****  ****    0 ROOT
