@<TRIPOS>MOLECULE
6JN
   14    13     1     0     0
SMALL
No Charge or Current Charge


@<TRIPOS>ATOM
      1 CAA         -1.0190    -0.9570     0.6820 c3         1 6JN      -0.314400
      2 CAB         -2.2020    -0.7730    -0.2390 c          1 6JN       0.730500
      3 CAC         -0.0410     0.1380     0.2850 c          1 6JN       0.635100
      4 CAD          1.0720    -0.2180    -0.6880 c3         1 6JN      -0.314400
      5 CAE          2.2670    -0.5250     0.1840 c          1 6JN       0.730500
      6 OAF          2.3970    -1.6660     0.5960 o          1 6JN      -0.754000
      7 OAG          3.0180     0.3900     0.4780 o          1 6JN      -0.754000
      8 OAH         -0.1460     1.2730     0.7360 o          1 6JN      -0.594100
      9 OAI         -3.1060    -0.0370     0.1220 o          1 6JN      -0.754000
     10 OAJ         -2.1740    -1.3280    -1.3240 o          1 6JN      -0.754000
     11 H1          -1.3060    -0.7660     1.7230 hc         1 6JN       0.035950
     12 H2          -0.5370    -1.9190     0.4750 hc         1 6JN       0.035950
     13 H3           0.7640    -1.1240    -1.2230 hc         1 6JN       0.035950
     14 H4           1.2590     0.6730    -1.2990 hc         1 6JN       0.035950
@<TRIPOS>BOND
     1     1     2 1   
     2     1     3 1   
     3     1    11 1   
     4     1    12 1   
     5     2     9 1   
     6     2    10 1   
     7     3     4 1   
     8     3     8 2   
     9     4     5 1   
    10     4    13 1   
    11     4    14 1   
    12     5     6 1   
    13     5     7 1   
@<TRIPOS>SUBSTRUCTURE
     1 6JN         1 TEMP              0 ****  ****    0 ROOT
