@<TRIPOS>MOLECULE
6JO
   30    32     1     0     0
SMALL
bcc


@<TRIPOS>ATOM
      1 CAN         -3.0280    -0.4340    -0.4160 ca         1 6JO      -0.182000
      2 CAO         -4.3470     0.0060    -0.3770 ca         1 6JO       0.134100
      3 OAQ         -5.3540    -0.6880    -0.9400 oh         1 6JO      -0.494100
      4 CAP         -4.6610     1.2080     0.2540 ca         1 6JO      -0.147000
      5 CAK         -3.6510     1.9600     0.8290 ca         1 6JO      -0.102000
      6 CAL         -2.3310     1.5370     0.7900 ca         1 6JO      -0.133000
      7 CAM         -2.0170     0.3260     0.1710 ca         1 6JO      -0.007800
      8 CAJ         -0.6210    -0.1240     0.1310 cc         1 6JO       0.139900
      9 OAG          0.2450     0.8950    -0.0190 os         1 6JO      -0.196200
     10 CAE          1.5740     0.6910    -0.0390 ca         1 6JO       0.128100
     11 CAF          2.3940     1.8070    -0.1970 ca         1 6JO      -0.121000
     12 CAA          3.7590     1.6400    -0.2240 ca         1 6JO      -0.159000
     13 CAB          4.3330     0.3630    -0.0930 ca         1 6JO       0.103100
     14 OAT          5.6650     0.1740    -0.1110 oh         1 6JO      -0.488100
     15 CAC          3.5160    -0.7370     0.0590 ca         1 6JO      -0.079000
     16 CAD          2.1260    -0.5800     0.0860 ca         1 6JO      -0.194600
     17 CAH          1.2360    -1.7170     0.2490 c          1 6JO       0.563900
     18 OAS          1.6110    -2.8800     0.3790 o          1 6JO      -0.554100
     19 CAI         -0.1800    -1.4000     0.2700 cd         1 6JO      -0.075100
     20 OAR         -1.0300    -2.4230     0.4560 oh         1 6JO      -0.481100
     21 H1          -2.7910    -1.3600    -0.9230 ha         1 6JO       0.147000
     22 H2          -5.0250    -1.5000    -1.3410 ho         1 6JO       0.429000
     23 H3          -5.6890     1.5460     0.2880 ha         1 6JO       0.148000
     24 H4          -3.8980     2.8930     1.3180 ha         1 6JO       0.135000
     25 H5          -1.5620     2.1400     1.2530 ha         1 6JO       0.143000
     26 H6           1.9600     2.7930    -0.2980 ha         1 6JO       0.155000
     27 H7           4.3940     2.5090    -0.3470 ha         1 6JO       0.139000
     28 H8           6.1280     1.0110    -0.2270 ho         1 6JO       0.428000
     29 H9           3.9430    -1.7270     0.1590 ha         1 6JO       0.172000
     30 H10         -0.4990    -3.2310     0.5280 ho         1 6JO       0.449000
@<TRIPOS>BOND
     1     1     2 ar  
     2     1     7 ar  
     3     1    21 1   
     4     2     3 1   
     5     2     4 ar  
     6     3    22 1   
     7     4     5 ar  
     8     4    23 1   
     9     5     6 ar  
    10     5    24 1   
    11     6     7 ar  
    12     6    25 1   
    13     7     8 1   
    14     8     9 1   
    15     8    19 2   
    16     9    10 1   
    17    10    11 ar  
    18    10    16 ar  
    19    11    12 ar  
    20    11    26 1   
    21    12    13 ar  
    22    12    27 1   
    23    13    14 1   
    24    13    15 ar  
    25    14    28 1   
    26    15    16 ar  
    27    15    29 1   
    28    16    17 1   
    29    17    18 2   
    30    17    19 1   
    31    19    20 1   
    32    20    30 1   
@<TRIPOS>SUBSTRUCTURE
     1 6JO         1 TEMP              0 ****  ****    0 ROOT
