@<TRIPOS>MOLECULE
6JO
   30    32     1     0     0
SMALL
No Charge or Current Charge


@<TRIPOS>ATOM
      1 CAN         -2.9470    -0.3240    -0.5580 ca         1 6JO      -0.164000
      2 CAO         -4.3020     0.0450    -0.6130 ca         1 6JO       0.134100
      3 OAQ         -5.1700    -0.6400    -1.4100 oh         1 6JO      -0.533100
      4 CAP         -4.7680     1.1260     0.1510 ca         1 6JO      -0.129000
      5 CAK         -3.8780     1.8430     0.9680 ca         1 6JO      -0.084000
      6 CAL         -2.5230     1.4730     1.0230 ca         1 6JO      -0.115000
      7 CAM         -2.0460     0.3810     0.2690 ca         1 6JO      -0.007800
      8 CAJ         -0.6240     0.0200     0.3220 cc         1 6JO       0.139900
      9 OAG          0.2900     1.0660     0.3460 os         1 6JO      -0.196200
     10 CAE          1.6170     0.7400     0.1020 ca         1 6JO       0.128100
     11 CAF          2.4880     1.8010    -0.2060 ca         1 6JO      -0.103000
     12 CAA          3.8590     1.5690    -0.4210 ca         1 6JO      -0.141000
     13 CAB          4.3700     0.2660    -0.3140 ca         1 6JO       0.103100
     14 OAT          5.6990     0.0290    -0.5180 oh         1 6JO      -0.527100
     15 CAC          3.5120    -0.7980     0.0070 ca         1 6JO      -0.061000
     16 CAD          2.1350    -0.5610     0.2180 ca         1 6JO      -0.194600
     17 CAH          1.2090    -1.6630     0.5570 c          1 6JO       0.563900
     18 OAS          1.5930    -2.8060     0.7890 o          1 6JO      -0.554100
     19 CAI         -0.2220    -1.2910     0.5550 cd         1 6JO      -0.075100
     20 OAR         -1.0770    -2.3390     0.7680 oh         1 6JO      -0.520100
     21 H1          -2.5870    -1.1540    -1.1600 ha         1 6JO       0.129000
     22 H2          -4.6800    -1.3620    -1.8590 ho         1 6JO       0.468000
     23 H3          -5.8160     1.4110     0.1070 ha         1 6JO       0.130000
     24 H4          -4.2370     2.6840     1.5580 ha         1 6JO       0.117000
     25 H5          -1.8420     2.0340     1.6590 ha         1 6JO       0.125000
     26 H6           2.0950     2.8130    -0.2780 ha         1 6JO       0.137000
     27 H7           4.5130     2.4030    -0.6630 ha         1 6JO       0.121000
     28 H8           6.1430     0.8780    -0.7300 ho         1 6JO       0.467000
     29 H9           3.9190    -1.8030     0.0910 ha         1 6JO       0.154000
     30 H10         -0.5220    -3.1440     0.9060 ho         1 6JO       0.488000
@<TRIPOS>BOND
     1     1     2 ar  
     2     1     7 ar  
     3     1    21 1   
     4     2     3 1   
     5     2     4 ar  
     6     3    22 1   
     7     4     5 ar  
     8     4    23 1   
     9     5     6 ar  
    10     5    24 1   
    11     6     7 ar  
    12     6    25 1   
    13     7     8 1   
    14     8     9 1   
    15     8    19 2   
    16     9    10 1   
    17    10    11 ar  
    18    10    16 ar  
    19    11    12 ar  
    20    11    26 1   
    21    12    13 ar  
    22    12    27 1   
    23    13    14 1   
    24    13    15 ar  
    25    14    28 1   
    26    15    16 ar  
    27    15    29 1   
    28    16    17 1   
    29    17    18 2   
    30    17    19 1   
    31    19    20 1   
    32    20    30 1   
@<TRIPOS>SUBSTRUCTURE
     1 6JO         1 TEMP              0 ****  ****    0 ROOT
