@<TRIPOS>MOLECULE
6JP
   36    38     1     0     0
SMALL
No Charge or Current Charge


@<TRIPOS>ATOM
      1 CAI         -0.4100     1.5490     0.8500 c6         1 6JP      -0.218400
      2 CAH         -1.8820     1.8410     0.6250 c          1 6JP       0.603700
      3 OAT         -2.3050     2.9870     0.7030 o          1 6JP      -0.510100
      4 CAE         -2.7170     0.6610     0.2240 ca         1 6JP      -0.335600
      5 CAD         -4.1230     0.6470     0.3150 ca         1 6JP       0.267100
      6 OAU         -4.8170     1.7140     0.7910 oh         1 6JP      -0.492100
      7 CAC         -4.8430    -0.4940    -0.0590 ca         1 6JP      -0.313000
      8 CAB         -4.1730    -1.6280    -0.5180 ca         1 6JP       0.245100
      9 OAV         -4.8830    -2.7290    -0.8720 oh         1 6JP      -0.523100
     10 CAA         -2.7820    -1.6300    -0.6090 ca         1 6JP      -0.306000
     11 CAF         -2.0570    -0.4900    -0.2480 ca         1 6JP       0.258100
     12 OAG         -0.6860    -0.5450    -0.3510 os         1 6JP      -0.339100
     13 CAJ          0.0840     0.6690    -0.3010 c6         1 6JP       0.235600
     14 CAK          1.5680     0.3070    -0.1760 ca         1 6JP      -0.090300
     15 CAM          2.5010     0.8250    -1.0960 ca         1 6JP      -0.107000
     16 CAL          3.8630     0.5000    -0.9820 ca         1 6JP       0.118100
     17 OAQ          4.7590     1.0070    -1.8780 oh         1 6JP      -0.533100
     18 CAP          4.3130    -0.3470     0.0510 ca         1 6JP       0.058100
     19 OAR          5.6660    -0.6360     0.1180 os         1 6JP      -0.365100
     20 CAS          6.2190    -1.4910     1.1370 c3         1 6JP       0.156900
     21 CAO          3.3800    -0.8690     0.9750 ca         1 6JP      -0.159000
     22 CAN          2.0170    -0.5410     0.8580 ca         1 6JP      -0.082000
     23 H1           0.1650     2.4770     0.9650 hc         1 6JP       0.084200
     24 H2          -0.3350     0.9430     1.7610 hc         1 6JP       0.084200
     25 H3          -5.7690     1.4870     0.7690 ho         1 6JP       0.469000
     26 H4          -5.9270    -0.5130     0.0120 ha         1 6JP       0.134000
     27 H5          -4.2470    -3.4150    -1.1630 ho         1 6JP       0.474000
     28 H6          -2.2500    -2.5090    -0.9620 ha         1 6JP       0.135000
     29 H7          -0.0750     1.2070    -1.2480 h1         1 6JP       0.060700
     30 H8           2.1740     1.4810    -1.8990 ha         1 6JP       0.132000
     31 H9           5.6410     0.6580    -1.6180 ho         1 6JP       0.483000
     32 H10          7.3040    -1.5850     1.0060 h1         1 6JP       0.043367
     33 H11          6.0320    -1.0780     2.1360 h1         1 6JP       0.043367
     34 H12          5.7820    -2.4960     1.0830 h1         1 6JP       0.043367
     35 H13          3.6890    -1.5260     1.7830 ha         1 6JP       0.119000
     36 H14          1.3060    -0.9510     1.5730 ha         1 6JP       0.123000
@<TRIPOS>BOND
     1     1     2 1   
     2     1    13 1   
     3     1    23 1   
     4     1    24 1   
     5     2     3 2   
     6     2     4 1   
     7     4     5 ar  
     8     4    11 ar  
     9     5     6 1   
    10     5     7 ar  
    11     6    25 1   
    12     7     8 ar  
    13     7    26 1   
    14     8     9 1   
    15     8    10 ar  
    16     9    27 1   
    17    10    11 ar  
    18    10    28 1   
    19    11    12 1   
    20    12    13 1   
    21    13    14 1   
    22    13    29 1   
    23    14    15 ar  
    24    14    22 ar  
    25    15    16 ar  
    26    15    30 1   
    27    16    17 1   
    28    16    18 ar  
    29    17    31 1   
    30    18    19 1   
    31    18    21 ar  
    32    19    20 1   
    33    20    32 1   
    34    20    33 1   
    35    20    34 1   
    36    21    22 ar  
    37    21    35 1   
    38    22    36 1   
@<TRIPOS>SUBSTRUCTURE
     1 6JP         1 TEMP              0 ****  ****    0 ROOT
