@<TRIPOS>MOLECULE
6JP
   36    38     1     0     0
SMALL
abcg2


@<TRIPOS>ATOM
      1 CAI         -0.3760     1.4860     0.8980 c6         1 6JP      -0.218400
      2 CAH         -1.8610     1.7550     0.8240 c          1 6JP       0.603700
      3 OAT         -2.3190     2.8000     1.2440 o          1 6JP      -0.510100
      4 CAE         -2.6560     0.6590     0.2730 ca         1 6JP      -0.335600
      5 CAD         -4.0720     0.6760     0.2220 ca         1 6JP       0.267100
      6 OAU         -4.7050     1.7880     0.6010 oh         1 6JP      -0.492100
      7 CAC         -4.7890    -0.4300    -0.2010 ca         1 6JP      -0.313000
      8 CAB         -4.1130    -1.5850    -0.5910 ca         1 6JP       0.245100
      9 OAV         -4.8590    -2.6190    -0.9890 oh         1 6JP      -0.523100
     10 CAA         -2.7240    -1.6350    -0.5790 ca         1 6JP      -0.306000
     11 CAF         -2.0150    -0.5230    -0.1570 ca         1 6JP       0.258100
     12 OAG         -0.6800    -0.6440    -0.1770 os         1 6JP      -0.339100
     13 CAJ          0.0790     0.5650    -0.2150 c6         1 6JP       0.235600
     14 CAK          1.5330     0.2050    -0.1210 ca         1 6JP      -0.090300
     15 CAM          2.4220     0.6900    -1.0760 ca         1 6JP      -0.107000
     16 CAL          3.7760     0.4160    -0.9940 ca         1 6JP       0.118100
     17 OAQ          4.6030     0.9060    -1.9390 oh         1 6JP      -0.533100
     18 CAP          4.2600    -0.3710     0.0640 ca         1 6JP       0.058100
     19 OAR          5.5920    -0.5820     0.0510 os         1 6JP      -0.365100
     20 CAS          6.1650    -1.3550     1.0870 c3         1 6JP       0.156900
     21 CAO          3.3740    -0.8610     1.0120 ca         1 6JP      -0.159000
     22 CAN          2.0170    -0.5720     0.9220 ca         1 6JP      -0.082000
     23 H1           0.1690     2.4290     0.8480 hc         1 6JP       0.084200
     24 H2          -0.1560     1.0400     1.8750 hc         1 6JP       0.084200
     25 H3          -5.6600     1.6620     0.5280 ho         1 6JP       0.469000
     26 H4          -5.8720    -0.4050    -0.2330 ha         1 6JP       0.134000
     27 H5          -4.3030    -3.3660    -1.2380 ho         1 6JP       0.474000
     28 H6          -2.1920    -2.5190    -0.9110 ha         1 6JP       0.135000
     29 H7          -0.1090     1.0550    -1.1790 h1         1 6JP       0.060700
     30 H8           2.0600     1.2900    -1.9040 ha         1 6JP       0.132000
     31 H9           5.5120     0.6360    -1.7590 ho         1 6JP       0.483000
     32 H10          7.2330    -1.3950     0.8900 h1         1 6JP       0.043367
     33 H11          6.0030    -0.9000     2.0680 h1         1 6JP       0.043367
     34 H12          5.7690    -2.3740     1.0990 h1         1 6JP       0.043367
     35 H13          3.7270    -1.4680     1.8340 ha         1 6JP       0.119000
     36 H14          1.3510    -0.9670     1.6780 ha         1 6JP       0.123000
@<TRIPOS>BOND
     1     1     2 1   
     2     1    13 1   
     3     1    23 1   
     4     1    24 1   
     5     2     3 2   
     6     2     4 1   
     7     4     5 ar  
     8     4    11 ar  
     9     5     6 1   
    10     5     7 ar  
    11     6    25 1   
    12     7     8 ar  
    13     7    26 1   
    14     8     9 1   
    15     8    10 ar  
    16     9    27 1   
    17    10    11 ar  
    18    10    28 1   
    19    11    12 1   
    20    12    13 1   
    21    13    14 1   
    22    13    29 1   
    23    14    15 ar  
    24    14    22 ar  
    25    15    16 ar  
    26    15    30 1   
    27    16    17 1   
    28    16    18 ar  
    29    17    31 1   
    30    18    19 1   
    31    18    21 ar  
    32    19    20 1   
    33    20    32 1   
    34    20    33 1   
    35    20    34 1   
    36    21    22 ar  
    37    21    35 1   
    38    22    36 1   
@<TRIPOS>SUBSTRUCTURE
     1 6JP         1 TEMP              0 ****  ****    0 ROOT
