@<TRIPOS>MOLECULE
6JQ
   75    80     1     0     0
SMALL
bcc


@<TRIPOS>ATOM
      1 C1           1.8830     3.9410     0.6000 ca         1 6JQ      -0.140300
      2 C2           3.2040     4.2600     0.8800 ca         1 6JQ      -0.085000
      3 C6           6.8920    -0.3140     0.5240 ca         1 6JQ      -0.160600
      4 C9           8.2920    -2.7270     0.4010 ca         1 6JQ       0.084100
      5 C12          8.9580    -1.5140     0.1780 ca         1 6JQ       0.043100
      6 C15          1.6040     2.6140     0.2450 ca         1 6JQ       0.091600
      7 C18         -2.5500     2.3820    -0.6960 ca         1 6JQ      -0.107000
      8 C21         -6.3690    -0.1990    -1.6510 ca         1 6JQ       0.447600
      9 C29         -4.2310    -1.2580    -1.9410 ca         1 6JQ      -0.069000
     10 C30         -3.6270    -0.0480    -1.5310 ca         1 6JQ      -0.165300
     11 C31         -2.2320     0.1160    -1.4420 ca         1 6JQ      -0.044000
     12 C16         -0.2020     1.4010    -0.9310 c          1 6JQ       0.689700
     13 N1           0.2630     2.2710    -0.0010 ns         1 6JQ      -0.480100
     14 C14          2.6170     1.6700     0.1820 ca         1 6JQ      -0.192000
     15 C4           3.9400     2.0200     0.4570 ca         1 6JQ       0.092600
     16 N            4.8760     0.9840     0.3730 ns         1 6JQ      -0.468100
     17 C5           6.2130     1.0120     0.6040 c          1 6JQ       0.694700
     18 C13          8.2570    -0.3230     0.2490 ca         1 6JQ      -0.069000
     19 O2          10.2810    -1.4720    -0.0980 os         1 6JQ      -0.301900
     20 C11         10.9800    -2.6660     0.2260 c6         1 6JQ       0.094400
     21 C10         10.2150    -3.8670    -0.2730 c6         1 6JQ       0.094400
     22 O1           8.9270    -3.9130     0.3280 os         1 6JQ      -0.304900
     23 C8           6.9380    -2.7150     0.7090 ca         1 6JQ      -0.139000
     24 C7           6.2420    -1.5220     0.7730 ca         1 6JQ      -0.101000
     25 O            6.8380     2.0310     0.8480 o          1 6JQ      -0.580100
     26 C3           4.2360     3.3340     0.8110 ca         1 6JQ      -0.162000
     27 C            0.8020     4.9790     0.6620 c3         1 6JQ      -0.040800
     28 C17         -1.6900     1.3030    -1.0140 ca         1 6JQ      -0.158600
     29 C20         -4.4840     1.0290    -1.2020 ca         1 6JQ       0.421600
     30 C19         -3.9070     2.2510    -0.7920 ca         1 6JQ      -0.169300
     31 C28         -5.5900    -1.3340    -1.9980 ca         1 6JQ      -0.247300
     32 N2          -5.8320     0.9330    -1.2710 nb         1 6JQ      -0.669000
     33 H1           3.4460     5.2790     1.1550 ha         1 6JQ       0.132000
     34 H2          -2.1470     3.3430    -0.3990 ha         1 6JQ       0.133000
     35 H4          -3.6130    -2.1060    -2.2070 ha         1 6JQ       0.142000
     36 H5          -1.5910    -0.7180    -1.7010 ha         1 6JQ       0.154000
     37 H6          -0.4190     2.7430     0.5720 hn         1 6JQ       0.324500
     38 H7           2.3840     0.6430    -0.0630 ha         1 6JQ       0.150000
     39 H8           4.4910     0.1050     0.0650 hn         1 6JQ       0.323500
     40 H9           8.7880     0.6050     0.0780 ha         1 6JQ       0.169000
     41 H10         11.9550    -2.6090    -0.2540 h1         1 6JQ       0.070700
     42 H11         11.1290    -2.7310     1.3090 h1         1 6JQ       0.070700
     43 H12         10.1150    -3.8340    -1.3630 h1         1 6JQ       0.070200
     44 H13         10.7280    -4.7880    -0.0010 h1         1 6JQ       0.070200
     45 H14          6.4350    -3.6540     0.9020 ha         1 6JQ       0.150000
     46 H15          5.1940    -1.5580     1.0400 ha         1 6JQ       0.136000
     47 H16          5.2420     3.6470     1.0280 ha         1 6JQ       0.169000
     48 H17          0.0770     4.7810     1.4560 hc         1 6JQ       0.039700
     49 H18          1.2250     5.9630     0.8580 hc         1 6JQ       0.039700
     50 H19          0.2460     5.0380    -0.2760 hc         1 6JQ       0.039700
     51 H20         -4.5590     3.0830    -0.5590 ha         1 6JQ       0.153000
     52 H21         -6.0840    -2.2440    -2.3110 ha         1 6JQ       0.143000
     53 C23         -8.3990    -0.7690    -0.3090 c3         1 6JQ      -0.075400
     54 C24         -9.9110    -0.9370    -0.3350 c3         1 6JQ       0.171800
     55 N3         -10.4630    -1.2860     0.9540 n3         1 6JQ      -0.715600
     56 C26        -11.9160    -1.2880     0.9690 c5         1 6JQ       0.157300
     57 C27        -12.2660    -1.9430     2.3040 c5         1 6JQ      -0.078900
     58 C32        -11.0510    -2.8450     2.6090 c5         1 6JQ      -0.078900
     59 C33        -10.0950    -2.6050     1.4380 c5         1 6JQ       0.157300
     60 H3          -8.2890     0.6780    -1.9090 hc         1 6JQ       0.058200
     61 H22         -8.1800    -0.9980    -2.4420 hc         1 6JQ       0.058200
     62 H23         -7.9170    -1.7130    -0.0400 hc         1 6JQ       0.053700
     63 H24         -8.1280    -0.0440     0.4630 hc         1 6JQ       0.053700
     64 H25        -10.3660     0.0070    -0.6520 h1         1 6JQ       0.028200
     65 H26        -10.1800    -1.6860    -1.1030 h1         1 6JQ       0.028200
     66 H27        -12.3080    -0.2740     0.8660 h1         1 6JQ       0.034200
     67 H28        -12.3270    -1.8820     0.1340 h1         1 6JQ       0.034200
     68 H29        -12.3920    -1.1900     3.0820 hc         1 6JQ       0.046450
     69 H30        -13.2000    -2.5010     2.2430 hc         1 6JQ       0.046450
     70 H31        -10.5860    -2.5610     3.5540 hc         1 6JQ       0.046450
     71 H32        -11.3210    -3.8980     2.6910 hc         1 6JQ       0.046450
     72 H33        -10.2410    -3.3730     0.6580 h1         1 6JQ       0.034200
     73 H34         -9.0460    -2.6460     1.7370 h1         1 6JQ       0.034200
     74 C22         -7.8650    -0.2970    -1.6640 c3         1 6JQ      -0.134700
     75 O3           0.5190     0.7270    -1.6450 o          1 6JQ      -0.584100
@<TRIPOS>BOND
     1     1     2 ar  
     2     1     6 ar  
     3     1    27 1   
     4     2    26 ar  
     5     2    33 1   
     6     3    17 1   
     7     3    18 ar  
     8     3    24 ar  
     9     4     5 ar  
    10     4    22 1   
    11     4    23 ar  
    12     5    18 ar  
    13     5    19 1   
    14     6    13 1   
    15     6    14 ar  
    16     7    28 ar  
    17     7    30 ar  
    18     7    34 1   
    19     8    31 ar  
    20     8    32 ar  
    21     8    74 1   
    22     9    10 ar  
    23     9    31 ar  
    24     9    35 1   
    25    10    11 ar  
    26    10    29 ar  
    27    11    28 ar  
    28    11    36 1   
    29    12    13 1   
    30    12    28 1   
    31    12    75 2   
    32    13    37 1   
    33    14    15 ar  
    34    14    38 1   
    35    15    16 1   
    36    15    26 ar  
    37    16    17 1   
    38    16    39 1   
    39    17    25 2   
    40    18    40 1   
    41    19    20 1   
    42    20    21 1   
    43    20    41 1   
    44    20    42 1   
    45    21    22 1   
    46    21    43 1   
    47    21    44 1   
    48    23    24 ar  
    49    23    45 1   
    50    24    46 1   
    51    26    47 1   
    52    27    48 1   
    53    27    49 1   
    54    27    50 1   
    55    29    30 ar  
    56    29    32 ar  
    57    30    51 1   
    58    31    52 1   
    59    53    54 1   
    60    53    62 1   
    61    53    63 1   
    62    53    74 1   
    63    54    55 1   
    64    54    64 1   
    65    54    65 1   
    66    55    56 1   
    67    55    59 1   
    68    56    57 1   
    69    56    66 1   
    70    56    67 1   
    71    57    58 1   
    72    57    68 1   
    73    57    69 1   
    74    58    59 1   
    75    58    70 1   
    76    58    71 1   
    77    59    72 1   
    78    59    73 1   
    79    60    74 1   
    80    61    74 1   
@<TRIPOS>SUBSTRUCTURE
     1 6JQ         1 TEMP              0 ****  ****    0 ROOT
