@<TRIPOS>MOLECULE
6JQ
   75    80     1     0     0
SMALL
No Charge or Current Charge


@<TRIPOS>ATOM
      1 C1           2.0400     4.0040     0.2590 ca         1 6JQ      -0.140300
      2 C2           3.3680     4.4080     0.4950 ca         1 6JQ      -0.067000
      3 C6           7.2310    -0.2130     0.3510 ca         1 6JQ      -0.160600
      4 C9           8.6280    -2.6730     0.1350 ca         1 6JQ       0.084100
      5 C12          9.3240    -1.4870     0.4690 ca         1 6JQ       0.043100
      6 C15          1.7570     2.6420     0.0100 ca         1 6JQ      -0.001000
      7 C18         -2.4740     2.2040    -0.3250 ca         1 6JQ      -0.089000
      8 C21         -6.5350    -0.0870    -1.3770 ca         1 6JQ       0.382300
      9 C29         -4.4380    -1.2310    -1.7720 ca         1 6JQ      -0.051000
     10 C30         -3.7820    -0.0840    -1.2900 ca         1 6JQ      -0.100000
     11 C31         -2.3760    -0.0470    -1.2310 ca         1 6JQ      -0.026000
     12 C16         -0.1810     1.0980    -0.7000 c          1 6JQ       0.622700
     13 N1           0.4030     2.2630    -0.2190 ns         1 6JQ      -0.154000
     14 C14          2.8170     1.7070     0.0210 ca         1 6JQ      -0.174000
     15 C4           4.1440     2.1080     0.2590 ca         1 6JQ       0.000000
     16 N            5.1440     1.0950     0.2470 ns         1 6JQ      -0.142000
     17 C5           6.5170     1.1230     0.4670 c          1 6JQ       0.627700
     18 C13          8.6300    -0.2690     0.5630 ca         1 6JQ      -0.051000
     19 O2          10.6850    -1.5110     0.7030 os         1 6JQ      -0.325100
     20 C11         11.3030    -2.8000     0.9130 c6         1 6JQ       0.117600
     21 C10         10.7390    -3.8230    -0.0970 c6         1 6JQ       0.117600
     22 O1           9.2980    -3.8730     0.0070 os         1 6JQ      -0.328100
     23 C8           7.2420    -2.6330    -0.0660 ca         1 6JQ      -0.121000
     24 C7           6.5450    -1.4160     0.0390 ca         1 6JQ      -0.083000
     25 O            7.1350     2.1460     0.7410 o          1 6JQ      -0.580100
     26 C3           4.4130     3.4710     0.4930 ca         1 6JQ      -0.144000
     27 C            0.9290     5.0530     0.2700 c3         1 6JQ      -0.040800
     28 C17         -1.7000     1.0960    -0.7480 ca         1 6JQ      -0.158600
     29 C20         -4.5520     1.0250    -0.8660 ca         1 6JQ       0.291000
     30 C19         -3.8780     2.1600    -0.3860 ca         1 6JQ      -0.086000
     31 C28         -5.8400    -1.2270    -1.8140 ca         1 6JQ      -0.164000
     32 N2          -5.9060     1.0160    -0.9120 nb         1 6JQ      -0.669000
     33 H1           3.5950     5.4550     0.6830 ha         1 6JQ       0.114000
     34 H2          -2.0090     3.1100     0.0560 ha         1 6JQ       0.115000
     35 H4          -3.8790    -2.1030    -2.1060 ha         1 6JQ       0.124000
     36 H5          -1.8090    -0.9150    -1.5630 ha         1 6JQ       0.136000
     37 H6          -0.2600     2.9870     0.0190 hn         1 6JQ       0.158000
     38 H7           2.6230     0.6520    -0.1410 ha         1 6JQ       0.132000
     39 H8           4.7820     0.1760     0.0360 hn         1 6JQ       0.157000
     40 H9           9.1880     0.6310     0.8120 ha         1 6JQ       0.151000
     41 H10         12.3920    -2.7060     0.8050 h1         1 6JQ       0.070700
     42 H11         11.0850    -3.1380     1.9360 h1         1 6JQ       0.070700
     43 H12         11.0130    -3.5190    -1.1170 h1         1 6JQ       0.070200
     44 H13         11.1530    -4.8230     0.0890 h1         1 6JQ       0.070200
     45 H14          6.7070    -3.5470    -0.3140 ha         1 6JQ       0.132000
     46 H15          5.4710    -1.4290    -0.1300 ha         1 6JQ       0.118000
     47 H16          5.4200     3.8300     0.6780 ha         1 6JQ       0.151000
     48 H17          0.2000     4.8470     1.0630 hc         1 6JQ       0.039700
     49 H18          1.3220     6.0620     0.4430 hc         1 6JQ       0.039700
     50 H19          0.3940     5.0720    -0.6860 hc         1 6JQ       0.039700
     51 H20         -4.4550     3.0200    -0.0570 ha         1 6JQ       0.135000
     52 H21         -6.3830    -2.0940    -2.1790 ha         1 6JQ       0.125000
     53 C23         -8.6860    -0.7880    -0.1990 c3         1 6JQ      -0.075400
     54 C24        -10.2310    -0.7570    -0.2130 c3         1 6JQ       0.171800
     55 N3         -10.8580    -1.3840     0.9710 n3         1 6JQ      -0.715600
     56 C26        -12.3300    -1.2750     1.0240 c5         1 6JQ       0.157300
     57 C27        -12.6480    -2.0720     2.3150 c5         1 6JQ      -0.078900
     58 C32        -11.5360    -3.1690     2.3560 c5         1 6JQ      -0.078900
     59 C33        -10.6360    -2.8380     1.1340 c5         1 6JQ       0.157300
     60 H3          -8.4080     0.9940    -1.4040 hc         1 6JQ       0.058200
     61 H22         -8.4190    -0.4950    -2.3310 hc         1 6JQ       0.058200
     62 H23         -8.3400    -1.8280    -0.2030 hc         1 6JQ       0.053700
     63 H24         -8.3290    -0.3340     0.7340 hc         1 6JQ       0.053700
     64 H25        -10.5470     0.2930    -0.2710 h1         1 6JQ       0.028200
     65 H26        -10.5850    -1.2510    -1.1290 h1         1 6JQ       0.028200
     66 H27        -12.6740    -0.2340     1.0860 h1         1 6JQ       0.034200
     67 H28        -12.7980    -1.7400     0.1440 h1         1 6JQ       0.034200
     68 H29        -12.5870    -1.4250     3.1980 hc         1 6JQ       0.046450
     69 H30        -13.6580    -2.4960     2.2940 hc         1 6JQ       0.046450
     70 H31        -10.9680    -3.1120     3.2910 hc         1 6JQ       0.046450
     71 H32        -11.9470    -4.1830     2.2890 hc         1 6JQ       0.046450
     72 H33        -10.9630    -3.3920     0.2420 h1         1 6JQ       0.034200
     73 H34         -9.5840    -3.0900     1.3250 h1         1 6JQ       0.034200
     74 C22         -8.0550    -0.0450    -1.3990 c3         1 6JQ      -0.134700
     75 O3           0.4640     0.1270    -1.0790 o          1 6JQ      -0.584100
@<TRIPOS>BOND
     1     1     2 ar  
     2     1     6 ar  
     3     1    27 1   
     4     2    26 ar  
     5     2    33 1   
     6     3    17 1   
     7     3    18 ar  
     8     3    24 ar  
     9     4     5 ar  
    10     4    22 1   
    11     4    23 ar  
    12     5    18 ar  
    13     5    19 1   
    14     6    13 1   
    15     6    14 ar  
    16     7    28 ar  
    17     7    30 ar  
    18     7    34 1   
    19     8    31 ar  
    20     8    32 ar  
    21     8    74 1   
    22     9    10 ar  
    23     9    31 ar  
    24     9    35 1   
    25    10    11 ar  
    26    10    29 ar  
    27    11    28 ar  
    28    11    36 1   
    29    12    13 1   
    30    12    28 1   
    31    12    75 2   
    32    13    37 1   
    33    14    15 ar  
    34    14    38 1   
    35    15    16 1   
    36    15    26 ar  
    37    16    17 1   
    38    16    39 1   
    39    17    25 2   
    40    18    40 1   
    41    19    20 1   
    42    20    21 1   
    43    20    41 1   
    44    20    42 1   
    45    21    22 1   
    46    21    43 1   
    47    21    44 1   
    48    23    24 ar  
    49    23    45 1   
    50    24    46 1   
    51    26    47 1   
    52    27    48 1   
    53    27    49 1   
    54    27    50 1   
    55    29    30 ar  
    56    29    32 ar  
    57    30    51 1   
    58    31    52 1   
    59    53    54 1   
    60    53    62 1   
    61    53    63 1   
    62    53    74 1   
    63    54    55 1   
    64    54    64 1   
    65    54    65 1   
    66    55    56 1   
    67    55    59 1   
    68    56    57 1   
    69    56    66 1   
    70    56    67 1   
    71    57    58 1   
    72    57    68 1   
    73    57    69 1   
    74    58    59 1   
    75    58    70 1   
    76    58    71 1   
    77    59    72 1   
    78    59    73 1   
    79    60    74 1   
    80    61    74 1   
@<TRIPOS>SUBSTRUCTURE
     1 6JQ         1 TEMP              0 ****  ****    0 ROOT
