@<TRIPOS>MOLECULE
6JR
   47    52     1     0     0
SMALL
abcg2


@<TRIPOS>ATOM
      1 N12          2.9860    -1.2420    -0.2580 n          1 6JR      -0.173300
      2 C15         -4.0000     0.0880     1.1810 c5         1 6JR       0.065300
      3 C20         -1.2580    -2.2160     0.2880 cc         1 6JR       0.409400
      4 C21          0.8190    -2.0900    -0.1120 cd         1 6JR       0.105500
      5 C22          2.1660    -2.3630    -0.5050 c          1 6JR       0.492300
      6 C24          4.3410    -1.1280    -0.5020 cc         1 6JR      -0.174000
      7 C26          5.9990     0.7650    -0.1240 ca         1 6JR      -0.113500
      8 C28          6.1480     2.0910     0.2860 ca         1 6JR      -0.090500
      9 P01         -5.9210     0.6100    -1.0250 p5         1 6JR       1.355200
     10 O02         -2.8500    -0.4720     1.7800 os         1 6JR      -0.417000
     11 O03         -4.4550     1.2600    -0.8940 os         1 6JR      -0.517400
     12 O04         -6.2000    -0.1180     0.3770 os         1 6JR      -0.600400
     13 O05         -2.4120     2.3780     0.6180 oh         1 6JR      -0.677000
     14 O06         -5.6320    -0.5470    -2.0820 oh         1 6JR      -0.766400
     15 O07         -6.9660     1.5870    -1.3550 o          1 6JR      -0.510000
     16 O08          2.6250    -3.3740    -0.9880 o          1 6JR      -0.464000
     17 N09         -0.8710    -0.9510     0.6870 na         1 6JR      -0.221500
     18 N10         -0.2770    -2.9090    -0.1860 nd         1 6JR      -0.574000
     19 N11          1.2990     0.1570     0.6360 na         1 6JR      -0.904900
     20 N13          3.5830     0.7950     0.3990 nd         1 6JR      -0.701000
     21 C14         -3.5130     0.4570    -0.2100 c5         1 6JR       0.162300
     22 C16         -2.1800     1.1040     0.1080 c5         1 6JR       0.140300
     23 C17         -1.7070     0.1160     1.2160 c5         1 6JR       0.264300
     24 C18         -5.1840    -0.8500     1.0860 c6         1 6JR       0.216600
     25 C19          0.4540    -0.8750     0.4320 cc         1 6JR       0.261000
     26 C23          2.6020    -0.0410     0.2860 cc         1 6JR       0.662400
     27 C25          4.6840     0.1260    -0.0910 cd         1 6JR       0.323500
     28 C27          7.1280     0.0690    -0.5620 ca         1 6JR      -0.090500
     29 C29          8.3700     0.6820    -0.5900 ca         1 6JR      -0.114500
     30 C30          7.3920     2.7030     0.2580 ca         1 6JR      -0.114500
     31 C31          8.5080     2.0030    -0.1800 ca         1 6JR      -0.105000
     32 H151        -4.3160     0.9890     1.7220 h1         1 6JR       0.105700
     33 H201        -2.2740    -2.5610     0.3940 h5         1 6JR       0.070100
     34 H241         4.9030    -1.9340    -0.9390 h4         1 6JR       0.183000
     35 H281         5.2830     2.6440     0.6280 ha         1 6JR       0.119500
     36 H051        -1.5740     2.8430     0.7130 ho         1 6JR       0.516000
     37 H061        -6.3950    -1.0990    -2.3040 ho         1 6JR       0.494000
     38 H3           1.0430     1.0230     1.0870 hn         1 6JR       0.534000
     39 H141        -3.3150    -0.4550    -0.7880 h1         1 6JR       0.075700
     40 H161        -1.4890     1.1070    -0.7420 h1         1 6JR       0.084700
     41 H171        -1.1310     0.6420     1.9850 h2         1 6JR       0.088700
     42 H181        -4.9330    -1.7740     0.5590 h1         1 6JR       0.073700
     43 H182        -5.6040    -1.1030     2.0570 h1         1 6JR       0.073700
     44 H271         7.0440    -0.9630    -0.8800 ha         1 6JR       0.119500
     45 H291         9.2340     0.1270    -0.9310 ha         1 6JR       0.112500
     46 H301         7.4900     3.7320     0.5800 ha         1 6JR       0.112500
     47 H311         9.4790     2.4810    -0.1990 ha         1 6JR       0.112000
@<TRIPOS>BOND
     1     1     5 1   
     2     1     6 1   
     3     1    26 1   
     4     2    10 1   
     5     2    21 1   
     6     2    24 1   
     7     2    32 1   
     8     3    17 1   
     9     3    18 2   
    10     3    33 1   
    11     4     5 1   
    12     4    18 1   
    13     4    25 2   
    14     5    16 2   
    15     6    27 2   
    16     6    34 1   
    17     7     8 ar  
    18     7    27 1   
    19     7    28 ar  
    20     8    30 ar  
    21     8    35 1   
    22     9    11 1   
    23     9    12 1   
    24     9    14 1   
    25     9    15 2   
    26    10    23 1   
    27    11    21 1   
    28    12    24 1   
    29    13    22 1   
    30    13    36 1   
    31    14    37 1   
    32    17    23 1   
    33    17    25 1   
    34    19    25 1   
    35    19    26 1   
    36    19    38 1   
    37    20    26 2   
    38    20    27 1   
    39    21    22 1   
    40    21    39 1   
    41    22    23 1   
    42    22    40 1   
    43    23    41 1   
    44    24    42 1   
    45    24    43 1   
    46    28    29 ar  
    47    28    44 1   
    48    29    31 ar  
    49    29    45 1   
    50    30    31 ar  
    51    30    46 1   
    52    31    47 1   
@<TRIPOS>SUBSTRUCTURE
     1 6JR         1 TEMP              0 ****  ****    0 ROOT
