@<TRIPOS>MOLECULE
6JR
   47    52     1     0     0
SMALL
No Charge or Current Charge


@<TRIPOS>ATOM
      1 N12          3.2450    -1.2760    -0.7080 n          1 6JR      -0.173300
      2 C15         -3.4680     0.6750     0.9050 c5         1 6JR       0.065300
      3 C20         -1.1390    -1.8370    -1.4680 cc         1 6JR       0.409400
      4 C21          1.0300    -1.9360    -1.2740 cd         1 6JR       0.105500
      5 C22          2.4810    -2.2900    -1.2790 c          1 6JR       0.492300
      6 C24          4.5850    -1.1610    -0.4950 cc         1 6JR      -0.174000
      7 C26          6.1060     0.6240     0.5500 ca         1 6JR      -0.113500
      8 C28          6.1710     1.8910     1.1730 ca         1 6JR      -0.090500
      9 P01         -6.3900     0.1240     0.4270 p5         1 6JR       1.355200
     10 O02         -2.0900     0.2670     0.8800 os         1 6JR      -0.417000
     11 O03         -5.2960     0.6260    -0.6640 os         1 6JR      -0.517400
     12 O04         -5.6990     0.4980     1.8430 os         1 6JR      -0.600400
     13 O05         -3.1510     2.1470    -1.5950 oh         1 6JR      -0.677000
     14 O06         -6.2440    -1.4570     0.4110 oh         1 6JR      -0.766400
     15 O07         -7.7830     0.6080     0.2520 o          1 6JR      -0.510000
     16 O08          2.9600    -3.3290    -1.7200 o          1 6JR      -0.464000
     17 N09         -0.7620    -0.6500    -0.8550 na         1 6JR      -0.221500
     18 N10         -0.0900    -2.6280    -1.7290 nd         1 6JR      -0.574000
     19 N11          1.4210     0.2250    -0.1900 na         1 6JR      -0.904900
     20 N13          3.5750     0.7180     0.2990 nd         1 6JR      -0.701000
     21 C14         -3.9620     0.1140    -0.4330 c5         1 6JR       0.162300
     22 C16         -2.9050     0.7430    -1.3800 c5         1 6JR       0.140300
     23 C17         -1.6160     0.4820    -0.4860 c5         1 6JR       0.264300
     24 C18         -4.3100     0.1570     2.0850 c6         1 6JR       0.216600
     25 C19          0.5910    -0.7440    -0.7590 cc         1 6JR       0.261000
     26 C23          2.7320    -0.1390    -0.2170 cc         1 6JR       0.662400
     27 C25          4.8090     0.0580     0.1230 cd         1 6JR       0.323500
     28 C27          7.3060    -0.0930     0.3440 ca         1 6JR      -0.090500
     29 C29          8.5400     0.4450     0.7500 ca         1 6JR      -0.114500
     30 C30          7.4050     2.4270     1.5790 ca         1 6JR      -0.114500
     31 C31          8.5910     1.7050     1.3680 ca         1 6JR      -0.105000
     32 H151        -3.5110     1.7740     0.9260 h1         1 6JR       0.105700
     33 H201        -2.1720    -2.0670    -1.6970 h5         1 6JR       0.070100
     34 H241         5.2400    -1.9650    -0.8070 h4         1 6JR       0.183000
     35 H281         5.2640     2.4660     1.3460 ha         1 6JR       0.119500
     36 H051        -4.1300     2.2350    -1.6910 ho         1 6JR       0.516000
     37 H061        -7.1160    -1.6460     0.8030 ho         1 6JR       0.494000
     38 H3           1.1270     1.0990     0.2270 hn         1 6JR       0.534000
     39 H141        -3.9450    -0.9850    -0.4690 h1         1 6JR       0.075700
     40 H161        -2.8560     0.2100    -2.3400 h1         1 6JR       0.084700
     41 H171        -0.9750     1.3710    -0.5220 h2         1 6JR       0.088700
     42 H181        -4.2070    -0.9330     2.1890 h1         1 6JR       0.073700
     43 H182        -3.9790     0.6270     3.0220 h1         1 6JR       0.073700
     44 H271         7.2920    -1.0700    -0.1320 ha         1 6JR       0.119500
     45 H291         9.4570    -0.1160     0.5860 ha         1 6JR       0.112500
     46 H301         7.4420     3.4030     2.0570 ha         1 6JR       0.112500
     47 H311         9.5460     2.1200     1.6820 ha         1 6JR       0.112000
@<TRIPOS>BOND
     1     1     5 1   
     2     1     6 1   
     3     1    26 1   
     4     2    10 1   
     5     2    21 1   
     6     2    24 1   
     7     2    32 1   
     8     3    17 1   
     9     3    18 2   
    10     3    33 1   
    11     4     5 1   
    12     4    18 1   
    13     4    25 2   
    14     5    16 2   
    15     6    27 2   
    16     6    34 1   
    17     7     8 ar  
    18     7    27 1   
    19     7    28 ar  
    20     8    30 ar  
    21     8    35 1   
    22     9    11 1   
    23     9    12 1   
    24     9    14 1   
    25     9    15 2   
    26    10    23 1   
    27    11    21 1   
    28    12    24 1   
    29    13    22 1   
    30    13    36 1   
    31    14    37 1   
    32    17    23 1   
    33    17    25 1   
    34    19    25 1   
    35    19    26 1   
    36    19    38 1   
    37    20    26 2   
    38    20    27 1   
    39    21    22 1   
    40    21    39 1   
    41    22    23 1   
    42    22    40 1   
    43    23    41 1   
    44    24    42 1   
    45    24    43 1   
    46    28    29 ar  
    47    28    44 1   
    48    29    31 ar  
    49    29    45 1   
    50    30    31 ar  
    51    30    46 1   
    52    31    47 1   
@<TRIPOS>SUBSTRUCTURE
     1 6JR         1 TEMP              0 ****  ****    0 ROOT
