@<TRIPOS>MOLECULE
6JS
   43    47     1     0     0
SMALL
bcc


@<TRIPOS>ATOM
      1 C4          -2.3570    -2.8240    -0.3120 ca         1 6JS       0.480800
      2 C5          -2.1100    -1.4560    -0.1340 ca         1 6JS      -0.494500
      3 C6          -0.7360    -1.0910    -0.1730 ca         1 6JS       0.794200
      4 N1           0.1700    -2.0460    -0.3480 nb         1 6JS      -0.829000
      5 N3          -1.4480    -3.7850    -0.4890 nb         1 6JS      -0.756000
      6 CAK         -5.0720     1.0690     0.1050 cc         1 6JS      -0.222300
      7 CAL         -4.8740     2.4410     0.4370 cc         1 6JS      -0.271300
      8 CAM         -3.5550     2.5810     0.7040 cd         1 6JS       0.244600
      9 OAN         -2.9300     1.3920     0.5650 os         1 6JS      -0.340800
     10 CAJ         -3.8520     0.4770     0.1990 cd         1 6JS       0.231400
     11 CAI         -3.4150    -0.8870     0.0010 cd         1 6JS       0.347900
     12 NAH         -4.3290    -1.8280    -0.0880 nc         1 6JS      -0.514100
     13 NAG         -3.6890    -2.9800    -0.2790 na         1 6JS      -0.094800
     14 C2          -0.2230    -3.3120    -0.4910 ca         1 6JS       0.727900
     15 NAO         -0.3460     0.1920    -0.0510 nu         1 6JS      -0.718300
     16 CAP          0.9340     0.7550    -0.0890 ca         1 6JS       0.134600
     17 CAQ          2.1180     0.0530     0.0930 ca         1 6JS      -0.090000
     18 CAU          0.9870     2.1490    -0.2980 ca         1 6JS       0.101100
     19 OBA         -0.1990     2.7630    -0.4640 os         1 6JS      -0.332900
     20 CBB         -0.2220     4.1650    -0.6530 c3         1 6JS       0.129700
     21 CAT          2.2140     2.7940    -0.3190 ca         1 6JS      -0.195000
     22 CAS          3.3880     2.0790    -0.1450 ca         1 6JS      -0.095000
     23 CAR          3.3550     0.7050     0.0620 ca         1 6JS      -0.131500
     24 CAV          4.5940    -0.0350     0.2440 cc         1 6JS       0.303200
     25 OAZ          4.5070    -1.3660     0.4650 os         1 6JS      -0.322800
     26 CAY          5.7590    -1.8510     0.5990 cc         1 6JS       0.235600
     27 CAX          6.6610    -0.8510     0.4700 cd         1 6JS      -0.270300
     28 CAW          5.9050     0.3350     0.2380 cd         1 6JS      -0.260300
     29 H2          -5.6190     3.2180     0.4690 ha         1 6JS       0.162000
     30 H3          -2.9460     3.4170     1.0040 h4         1 6JS       0.053100
     31 H5           0.5750    -4.0320    -0.6290 h5         1 6JS       0.049100
     32 H6          -1.0920     0.8650     0.0500 hn         1 6JS       0.477800
     33 H7           2.0660    -1.0110     0.2490 ha         1 6JS       0.184000
     34 H8           0.1860     4.6970     0.2100 h1         1 6JS       0.042700
     35 H9           0.3290     4.4620    -1.5480 h1         1 6JS       0.042700
     36 H10         -1.2650     4.4420    -0.7780 h1         1 6JS       0.042700
     37 H11          2.2740     3.8620    -0.4770 ha         1 6JS       0.137000
     38 H12          4.3280     2.6130    -0.1760 ha         1 6JS       0.136000
     39 H13          5.8510    -2.9090     0.7800 h4         1 6JS       0.053100
     40 H14          7.7330    -0.9420     0.5280 ha         1 6JS       0.159000
     41 H15          6.2950     1.3290     0.0860 ha         1 6JS       0.157000
     42 H4          -4.2080    -3.8390    -0.3720 hn         1 6JS       0.341700
     43 H1          -5.9960     0.5900    -0.1720 ha         1 6JS       0.173000
@<TRIPOS>BOND
     1     1     2 ar  
     2     1     5 ar  
     3     1    13 1   
     4     2     3 ar  
     5     2    11 1   
     6     3     4 ar  
     7     3    15 1   
     8     4    14 ar  
     9     5    14 ar  
    10     6     7 1   
    11     6    10 2   
    12     6    43 1   
    13     7     8 2   
    14     7    29 1   
    15     8     9 1   
    16     8    30 1   
    17     9    10 1   
    18    10    11 1   
    19    11    12 2   
    20    12    13 1   
    21    13    42 1   
    22    14    31 1   
    23    15    16 1   
    24    15    32 1   
    25    16    17 ar  
    26    16    18 ar  
    27    17    23 ar  
    28    17    33 1   
    29    18    19 1   
    30    18    21 ar  
    31    19    20 1   
    32    20    34 1   
    33    20    35 1   
    34    20    36 1   
    35    21    22 ar  
    36    21    37 1   
    37    22    23 ar  
    38    22    38 1   
    39    23    24 1   
    40    24    25 1   
    41    24    28 2   
    42    25    26 1   
    43    26    27 2   
    44    26    39 1   
    45    27    28 1   
    46    27    40 1   
    47    28    41 1   
@<TRIPOS>SUBSTRUCTURE
     1 6JS         1 TEMP              0 ****  ****    0 ROOT
