@<TRIPOS>MOLECULE
6JS
   43    47     1     0     0
SMALL
No Charge or Current Charge


@<TRIPOS>ATOM
      1 C4          -2.5180    -2.8740    -0.5550 ca         1 6JS       0.152500
      2 C5          -2.1600    -1.5750    -0.3110 ca         1 6JS      -0.363900
      3 C6          -0.8180    -1.1970    -0.4770 ca         1 6JS       0.465900
      4 N1           0.0840    -2.1030    -0.8980 nb         1 6JS      -0.303000
      5 N3          -1.6320    -3.7980    -0.9620 nb         1 6JS      -0.230000
      6 CAK         -4.8360     0.9930     0.8370 cc         1 6JS      -0.139000
      7 CAL         -4.6370     2.3610     1.1050 cc         1 6JS      -0.188000
      8 CAM         -3.3100     2.6130     0.8870 cd         1 6JS       0.134900
      9 OAN         -2.6400     1.4760     0.4910 os         1 6JS      -0.252000
     10 CAJ         -3.6090     0.5000     0.4710 cd         1 6JS       0.121700
     11 CAI         -3.3820    -0.8900     0.1020 cd         1 6JS       0.347900
     12 NAH         -4.4100    -1.7570     0.1050 nc         1 6JS      -0.514100
     13 NAG         -3.8680    -2.9800    -0.3030 na         1 6JS      -0.145100
     14 C2          -0.3640    -3.3590    -1.1160 ca         1 6JS       0.201900
     15 NAO         -0.3680     0.0940    -0.2740 nu         1 6JS      -0.911900
     16 CAP          0.8900     0.7260    -0.2650 ca         1 6JS       0.273000
     17 CAQ          2.0710     0.0360     0.0810 ca         1 6JS      -0.072000
     18 CAU          0.9630     2.1100    -0.5680 ca         1 6JS       0.101100
     19 OBA         -0.2100     2.7840    -0.8800 os         1 6JS      -0.356100
     20 CBB         -0.2380     4.1900    -1.1850 c3         1 6JS       0.152900
     21 CAT          2.2130     2.7660    -0.5500 ca         1 6JS      -0.177000
     22 CAS          3.3810     2.0590    -0.2240 ca         1 6JS      -0.077000
     23 CAR          3.3240     0.6880     0.1020 ca         1 6JS      -0.131500
     24 CAV          4.5300    -0.0690     0.4620 cc         1 6JS       0.193500
     25 OAZ          4.5130    -1.4260     0.6830 os         1 6JS      -0.234000
     26 CAY          5.8080    -1.7760     0.9990 cc         1 6JS       0.125900
     27 CAX          6.6050    -0.6600     0.9780 cd         1 6JS      -0.187000
     28 CAW          5.7880     0.4390     0.6340 cd         1 6JS      -0.177000
     29 H2          -5.3960     3.0690     1.4230 ha         1 6JS       0.144000
     30 H3          -2.7380     3.5280     0.9760 h4         1 6JS       0.053100
     31 H5           0.3700    -4.0900    -1.4510 h5         1 6JS       0.049100
     32 H6          -1.1300     0.7710    -0.2390 hn         1 6JS       0.533000
     33 H7           2.0140    -1.0100     0.3570 ha         1 6JS       0.166000
     34 H8           0.1370     4.7800    -0.3390 h1         1 6JS       0.042700
     35 H9           0.3740     4.4100    -2.0690 h1         1 6JS       0.042700
     36 H10         -1.2660     4.5120    -1.3940 h1         1 6JS       0.042700
     37 H11          2.3000     3.8220    -0.7870 ha         1 6JS       0.119000
     38 H12          4.3280     2.5920    -0.2230 ha         1 6JS       0.118000
     39 H13          6.0170    -2.8160     1.2120 h4         1 6JS       0.053100
     40 H14          7.6690    -0.6360     1.1890 ha         1 6JS       0.141000
     41 H15          6.1030     1.4720     0.5340 ha         1 6JS       0.139000
     42 H4          -4.4280    -3.8270    -0.3920 hn         1 6JS       0.392000
     43 H1          -5.7760     0.4540     0.9080 ha         1 6JS       0.155000
@<TRIPOS>BOND
     1     1     2 ar  
     2     1     5 ar  
     3     1    13 1   
     4     2     3 ar  
     5     2    11 1   
     6     3     4 ar  
     7     3    15 1   
     8     4    14 ar  
     9     5    14 ar  
    10     6     7 1   
    11     6    10 2   
    12     6    43 1   
    13     7     8 2   
    14     7    29 1   
    15     8     9 1   
    16     8    30 1   
    17     9    10 1   
    18    10    11 1   
    19    11    12 2   
    20    12    13 1   
    21    13    42 1   
    22    14    31 1   
    23    15    16 1   
    24    15    32 1   
    25    16    17 ar  
    26    16    18 ar  
    27    17    23 ar  
    28    17    33 1   
    29    18    19 1   
    30    18    21 ar  
    31    19    20 1   
    32    20    34 1   
    33    20    35 1   
    34    20    36 1   
    35    21    22 ar  
    36    21    37 1   
    37    22    23 ar  
    38    22    38 1   
    39    23    24 1   
    40    24    25 1   
    41    24    28 2   
    42    25    26 1   
    43    26    27 2   
    44    26    39 1   
    45    27    28 1   
    46    27    40 1   
    47    28    41 1   
@<TRIPOS>SUBSTRUCTURE
     1 6JS         1 TEMP              0 ****  ****    0 ROOT
