@<TRIPOS>MOLECULE
6JT
   50    53     1     0     0
SMALL
No Charge or Current Charge


@<TRIPOS>ATOM
      1 N1          -3.6590     3.4650    -0.6080 ns         1 6JT      -0.391400
      2 O2          -4.8690     4.1280    -0.1680 oh         1 6JT      -0.418100
      3 C3          -2.7560     2.9410     0.3090 c          1 6JT       0.603100
      4 O4          -2.7950     3.2140     1.5020 o          1 6JT      -0.567100
      5 C5          -1.6720     2.0320    -0.2850 c3         1 6JT      -0.160400
      6 C6          -1.8410     0.5380     0.1240 c3         1 6JT      -0.085000
      7 C7          -3.1750    -0.0720    -0.3990 c3         1 6JT      -0.068400
      8 C12         -0.6370    -0.2780    -0.2850 cc         1 6JT       0.488300
      9 O13         -0.4060    -0.5220    -1.6050 os         1 6JT      -0.094700
     10 N14          0.2680    -0.7960     0.5160 nd         1 6JT      -0.713000
     11 N15          0.7790    -1.2890    -1.6480 nc         1 6JT      -0.378300
     12 C16          1.1210    -1.4090    -0.3740 cd         1 6JT       0.560300
     13 C17         -3.4180    -1.5570    -0.0230 c5         1 6JT      -0.070700
     14 C18         -4.7930    -2.1050    -0.4780 c5         1 6JT      -0.078400
     15 C19         -3.5300    -1.8450     1.4960 c5         1 6JT      -0.078400
     16 C20         -4.0160    -3.3230     1.5210 c5         1 6JT      -0.077900
     17 C21         -4.8080    -3.5100     0.1860 c5         1 6JT      -0.077900
     18 H1          -3.6650     3.1060    -1.5620 hn         1 6JT       0.339500
     19 H2          -4.8720     4.9720    -0.6790 ho         1 6JT       0.444000
     20 H3          -1.6780     2.1050    -1.3790 hc         1 6JT       0.073700
     21 H4          -0.7030     2.3820     0.0920 hc         1 6JT       0.073700
     22 H5          -1.8810     0.5120     1.2200 hc         1 6JT       0.110700
     23 H6          -4.0130     0.5280    -0.0220 hc         1 6JT       0.054700
     24 H7          -3.2030     0.0270    -1.4920 hc         1 6JT       0.054700
     25 H9          -5.6210    -1.4820    -0.1160 hc         1 6JT       0.046200
     26 H10         -2.5760    -1.7210     2.0220 hc         1 6JT       0.046200
     27 H11         -3.1680    -4.0160     1.5650 hc         1 6JT       0.041700
     28 H12         -5.8300    -3.8680     0.3560 hc         1 6JT       0.041700
     29 H13         -4.3150    -4.2500    -0.4550 hc         1 6JT       0.041700
     30 C1           2.3550    -2.1600     0.0560 c3         1 6JT      -0.027500
     31 C2           3.6440    -1.4170    -0.2000 cc         1 6JT      -0.146400
     32 C4           4.1170    -0.2140     0.4620 ca         1 6JT      -0.103800
     33 C8           5.3280     0.1290    -0.0880 ca         1 6JT       0.055100
     34 O1           5.6520    -0.7740    -1.0490 os         1 6JT      -0.169200
     35 C10          4.6440    -1.7060    -1.1230 cd         1 6JT      -0.053900
     36 H8          -2.6090    -2.1470    -0.4740 hc         1 6JT       0.050700
     37 H14         -4.8830    -2.1630    -1.5690 hc         1 6JT       0.046200
     38 H15         -4.2540    -1.1790     1.9810 hc         1 6JT       0.046200
     39 H16         -4.6380    -3.5260     2.4000 hc         1 6JT       0.041700
     40 H17          2.2820    -2.3940     1.1240 hc         1 6JT       0.074700
     41 H18          2.3800    -3.1270    -0.4570 hc         1 6JT       0.074700
     42 H26          4.7410    -2.5060    -1.8520 h4         1 6JT       0.240000
     43 C9           6.0570     1.2490     0.3260 ca         1 6JT      -0.108000
     44 C11          5.5000     2.0410     1.3540 ca         1 6JT      -0.090000
     45 C13          4.2510     1.6950     1.9290 ca         1 6JT      -0.133000
     46 C14          3.5430     0.5550     1.4840 ca         1 6JT      -0.049000
     47 H19          7.0130     1.4970    -0.1280 ha         1 6JT       0.130000
     48 H20          6.0340     2.9210     1.7070 ha         1 6JT       0.115000
     49 H21          3.8330     2.3130     2.7200 ha         1 6JT       0.116000
     50 H22          2.5840     0.2860     1.9220 ha         1 6JT       0.134000
@<TRIPOS>BOND
     1     1     2 1   
     2     1     3 1   
     3     1    18 1   
     4     2    19 1   
     5     3     4 2   
     6     3     5 1   
     7     5     6 1   
     8     5    20 1   
     9     5    21 1   
    10     6     7 1   
    11     6     8 1   
    12     6    22 1   
    13     7    13 1   
    14     7    23 1   
    15     7    24 1   
    16     8     9 1   
    17     8    10 2   
    18     9    11 1   
    19    10    12 1   
    20    11    12 2   
    21    12    30 1   
    22    13    14 1   
    23    13    15 1   
    24    13    36 1   
    25    14    17 1   
    26    14    25 1   
    27    14    37 1   
    28    15    16 1   
    29    15    26 1   
    30    15    38 1   
    31    16    17 1   
    32    16    27 1   
    33    16    39 1   
    34    17    28 1   
    35    17    29 1   
    36    30    31 1   
    37    30    40 1   
    38    30    41 1   
    39    31    32 1   
    40    31    35 2   
    41    32    33 ar  
    42    32    46 ar  
    43    33    34 1   
    44    33    43 ar  
    45    34    35 1   
    46    35    42 1   
    47    43    44 ar  
    48    43    47 1   
    49    44    45 ar  
    50    44    48 1   
    51    45    46 ar  
    52    45    49 1   
    53    46    50 1   
@<TRIPOS>SUBSTRUCTURE
     1 6JT         1 TEMP              0 ****  ****    0 ROOT
