@<TRIPOS>MOLECULE
6JT
   50    53     1     0     0
SMALL
abcg2


@<TRIPOS>ATOM
      1 N1          -3.5140     3.5580    -1.0410 ns         1 6JT      -0.391400
      2 O2          -4.4660     4.3960    -0.5510 oh         1 6JT      -0.418100
      3 C3          -2.7230     2.8650    -0.2060 c          1 6JT       0.603100
      4 O4          -2.7230     3.0100     1.0040 o          1 6JT      -0.567100
      5 C5          -1.7860     1.9110    -0.9180 c3         1 6JT      -0.160400
      6 C6          -1.7940     0.5340    -0.2430 c3         1 6JT      -0.085000
      7 C7          -3.1300    -0.1890    -0.4520 c3         1 6JT      -0.068400
      8 C12         -0.6560    -0.2850    -0.7410 cc         1 6JT       0.488300
      9 O13         -0.6180    -0.6240    -2.0220 os         1 6JT      -0.094700
     10 N14          0.3520    -0.7490    -0.0820 nd         1 6JT      -0.713000
     11 N15          0.5120    -1.3770    -2.2130 nc         1 6JT      -0.378300
     12 C16          1.0560    -1.4230    -1.0390 cd         1 6JT       0.560300
     13 C17         -3.1950    -1.5840     0.1530 c5         1 6JT      -0.070700
     14 C18         -4.5560    -2.2580    -0.0450 c5         1 6JT      -0.078400
     15 C19         -3.0080    -1.6440     1.6690 c5         1 6JT      -0.078400
     16 C20         -3.4980    -3.0470     2.0330 c5         1 6JT      -0.077900
     17 C21         -4.6330    -3.3560     1.0320 c5         1 6JT      -0.077900
     18 H1          -3.5950     3.3420    -2.0240 hn         1 6JT       0.339500
     19 H2          -4.0750     5.2800    -0.5510 ho         1 6JT       0.444000
     20 H3          -2.0390     1.8160    -1.9760 hc         1 6JT       0.073700
     21 H4          -0.7860     2.3510    -0.8680 hc         1 6JT       0.073700
     22 H5          -1.6140     0.6720     0.8250 hc         1 6JT       0.110700
     23 H6          -3.9210     0.4200    -0.0030 hc         1 6JT       0.054700
     24 H7          -3.3500    -0.2370    -1.5230 hc         1 6JT       0.054700
     25 H9          -5.3460    -1.5170     0.1110 hc         1 6JT       0.046200
     26 H10         -1.9810    -1.4610     1.9900 hc         1 6JT       0.046200
     27 H11         -2.6820    -3.7610     1.9060 hc         1 6JT       0.041700
     28 H12         -5.6090    -3.3550     1.5210 hc         1 6JT       0.041700
     29 H13         -4.5060    -4.3490     0.5980 hc         1 6JT       0.041700
     30 C1           2.3400    -2.1300    -0.7730 c3         1 6JT      -0.027500
     31 C2           3.4760    -1.1730    -0.6010 cc         1 6JT      -0.146400
     32 C4           3.7430    -0.3010     0.5150 ca         1 6JT      -0.103800
     33 C8           4.9210     0.3720     0.1870 ca         1 6JT       0.055100
     34 O1           5.3640    -0.0280    -1.0260 os         1 6JT      -0.169200
     35 C10          4.4800    -0.9550    -1.4750 cd         1 6JT      -0.053900
     36 H8          -2.4290    -2.2200    -0.3100 hc         1 6JT       0.050700
     37 H14         -4.6830    -2.6440    -1.0570 hc         1 6JT       0.046200
     38 H15         -3.6380    -0.8810     2.1390 hc         1 6JT       0.046200
     39 H16         -3.8210    -3.1200     3.0720 hc         1 6JT       0.041700
     40 H17          2.2230    -2.7400     0.1260 hc         1 6JT       0.074700
     41 H18          2.5470    -2.8080    -1.6000 hc         1 6JT       0.074700
     42 H26          4.6910    -1.3860    -2.4420 h4         1 6JT       0.240000
     43 C9           5.5270     1.3020     1.0140 ca         1 6JT      -0.108000
     44 C11          4.9000     1.5490     2.2250 ca         1 6JT      -0.090000
     45 C13          3.7180     0.8880     2.5830 ca         1 6JT      -0.133000
     46 C14          3.1260    -0.0360     1.7390 ca         1 6JT      -0.049000
     47 H19          6.4420     1.8070     0.7330 ha         1 6JT       0.130000
     48 H20          5.3350     2.2670     2.9080 ha         1 6JT       0.115000
     49 H21          3.2600     1.1090     3.5380 ha         1 6JT       0.116000
     50 H22          2.2050    -0.5300     2.0170 ha         1 6JT       0.134000
@<TRIPOS>BOND
     1     1     2 1   
     2     1     3 1   
     3     1    18 1   
     4     2    19 1   
     5     3     4 2   
     6     3     5 1   
     7     5     6 1   
     8     5    20 1   
     9     5    21 1   
    10     6     7 1   
    11     6     8 1   
    12     6    22 1   
    13     7    13 1   
    14     7    23 1   
    15     7    24 1   
    16     8     9 1   
    17     8    10 2   
    18     9    11 1   
    19    10    12 1   
    20    11    12 2   
    21    12    30 1   
    22    13    14 1   
    23    13    15 1   
    24    13    36 1   
    25    14    17 1   
    26    14    25 1   
    27    14    37 1   
    28    15    16 1   
    29    15    26 1   
    30    15    38 1   
    31    16    17 1   
    32    16    27 1   
    33    16    39 1   
    34    17    28 1   
    35    17    29 1   
    36    30    31 1   
    37    30    40 1   
    38    30    41 1   
    39    31    32 1   
    40    31    35 2   
    41    32    33 ar  
    42    32    46 ar  
    43    33    34 1   
    44    33    43 ar  
    45    34    35 1   
    46    35    42 1   
    47    43    44 ar  
    48    43    47 1   
    49    44    45 ar  
    50    44    48 1   
    51    45    46 ar  
    52    45    49 1   
    53    46    50 1   
@<TRIPOS>SUBSTRUCTURE
     1 6JT         1 TEMP              0 ****  ****    0 ROOT
