@<TRIPOS>MOLECULE
6JU
   37    39     1     0     0
SMALL
No Charge or Current Charge


@<TRIPOS>ATOM
      1 C5          -0.1910     1.6290     0.8430 cc         1 6JU      -0.122400
      2 C4          -1.4950     2.0450     0.5850 cd         1 6JU      -0.141100
      3 C6          -0.0660     0.3280     0.2430 ca         1 6JU      -0.086800
      4 C7           1.0350    -0.5390     0.1940 ca         1 6JU      -0.023000
      5 C8           0.8760    -1.7700    -0.4760 ca         1 6JU      -0.044900
      6 Br           2.3440    -2.9910    -0.5760 br         1 6JU      -0.111100
      7 C9          -0.3600    -2.1070    -1.0740 ca         1 6JU      -0.067000
      8 C10         -1.4490    -1.2110    -1.0070 ca         1 6JU      -0.128000
      9 C11         -1.2640     0.0100    -0.3360 ca         1 6JU      -0.032200
     10 N3          -2.1700     1.0400    -0.1410 na         1 6JU      -0.080700
     11 C12         -3.5500     1.0540    -0.6660 c3         1 6JU      -0.004400
     12 C13         -4.5440     0.1880     0.1280 c          1 6JU       0.578100
     13 O2          -4.3280    -0.2240     1.2620 o          1 6JU      -0.539100
     14 N1          -5.7340    -0.0820    -0.5420 ns         1 6JU      -0.394400
     15 O14         -6.6570    -1.0810    -0.0450 oh         1 6JU      -0.411100
     16 H2          -1.9820     2.9750     0.8610 h4         1 6JU       0.214000
     17 H3           1.9820    -0.2720     0.6550 ha         1 6JU       0.136000
     18 H4          -0.4740    -3.0580    -1.5880 ha         1 6JU       0.126000
     19 H5          -2.4010    -1.4660    -1.4660 ha         1 6JU       0.112000
     20 H6          -3.9270     2.0830    -0.6650 h1         1 6JU       0.074700
     21 H7          -3.5370     0.7030    -1.7040 h1         1 6JU       0.074700
     22 H8          -5.8240     0.1610    -1.5280 hn         1 6JU       0.338500
     23 H9          -7.5280    -0.6170    -0.0470 ho         1 6JU       0.443000
     24 C1           0.8860     2.3880     1.5730 c3         1 6JU       0.042100
     25 C2           2.0230     2.8230     0.6550 ca         1 6JU      -0.077300
     26 C3           1.7630     3.6780    -0.4340 ca         1 6JU      -0.106000
     27 C14          2.8060     4.0790    -1.2870 ca         1 6JU      -0.109500
     28 C15          4.1160     3.6280    -1.0560 ca         1 6JU      -0.111000
     29 C16          4.3830     2.7760     0.0290 ca         1 6JU      -0.109500
     30 C17          3.3400     2.3760     0.8820 ca         1 6JU      -0.106000
     31 H1           0.4490     3.2720     2.0530 hc         1 6JU       0.054700
     32 H10          1.2680     1.7660     2.3910 hc         1 6JU       0.054700
     33 H11          0.7510     4.0300    -0.6210 ha         1 6JU       0.111000
     34 H12          2.5970     4.7380    -2.1270 ha         1 6JU       0.110500
     35 H13          4.9230     3.9380    -1.7170 ha         1 6JU       0.111000
     36 H14          5.3970     2.4270     0.2080 ha         1 6JU       0.110500
     37 H15          3.5590     1.7160     1.7190 ha         1 6JU       0.111000
@<TRIPOS>BOND
     1     1     2 2   
     2     1     3 1   
     3     1    24 1   
     4     2    10 1   
     5     2    16 1   
     6     3     4 ar  
     7     3     9 ar  
     8     4     5 ar  
     9     4    17 1   
    10     5     6 1   
    11     5     7 ar  
    12     7     8 ar  
    13     7    18 1   
    14     8     9 ar  
    15     8    19 1   
    16     9    10 1   
    17    10    11 1   
    18    11    12 1   
    19    11    20 1   
    20    11    21 1   
    21    12    13 2   
    22    12    14 1   
    23    14    15 1   
    24    14    22 1   
    25    15    23 1   
    26    24    25 1   
    27    24    31 1   
    28    24    32 1   
    29    25    26 ar  
    30    25    30 ar  
    31    26    27 ar  
    32    26    33 1   
    33    27    28 ar  
    34    27    34 1   
    35    28    29 ar  
    36    28    35 1   
    37    29    30 ar  
    38    29    36 1   
    39    30    37 1   
@<TRIPOS>SUBSTRUCTURE
     1 6JU         1 TEMP              0 ****  ****    0 ROOT
