@<TRIPOS>MOLECULE
6JU
   37    39     1     0     0
SMALL
bcc


@<TRIPOS>ATOM
      1 C5          -0.2990     1.6640     0.6870 cc         1 6JU      -0.122400
      2 C4          -1.5810     2.0420     0.4210 cd         1 6JU      -0.091100
      3 C6          -0.1220     0.3970     0.0450 ca         1 6JU      -0.086800
      4 C7           0.9580    -0.4850    -0.0500 ca         1 6JU      -0.041000
      5 C8           0.7730    -1.6560    -0.7550 ca         1 6JU      -0.044900
      6 BR           2.2120    -2.8810    -0.9020 br         1 6JU      -0.111100
      7 C9          -0.4440    -1.9800    -1.3710 ca         1 6JU      -0.085000
      8 C10         -1.5160    -1.1120    -1.2910 ca         1 6JU      -0.146000
      9 C11         -1.3430     0.0750    -0.5850 ca         1 6JU      -0.032200
     10 N3          -2.2110     1.1050    -0.3590 na         1 6JU      -0.051400
     11 C12         -3.5980     1.1120    -0.7100 c3         1 6JU      -0.033700
     12 C13         -4.4090     0.2600     0.2630 c          1 6JU       0.645100
     13 O2          -4.1090     0.1550     1.4350 o          1 6JU      -0.539100
     14 N1          -5.4850    -0.3010    -0.3050 ns         1 6JU      -0.461400
     15 O14         -6.2880    -1.1300     0.4130 oh         1 6JU      -0.372100
     16 H2          -2.1050     2.9350     0.7270 h4         1 6JU       0.164000
     17 H3           1.9070    -0.2480     0.4150 ha         1 6JU       0.154000
     18 H4          -0.5530    -2.9090    -1.9140 ha         1 6JU       0.144000
     19 H5          -2.4530    -1.3680    -1.7710 ha         1 6JU       0.130000
     20 H6          -3.9680     2.1370    -0.6580 h1         1 6JU       0.074700
     21 H7          -3.7260     0.7900    -1.7460 h1         1 6JU       0.074700
     22 H8          -5.6540    -0.2940    -1.3010 hn         1 6JU       0.338500
     23 H9          -7.0080    -0.5840     0.7550 ho         1 6JU       0.404000
     24 C1           0.7210     2.4160     1.4760 c3         1 6JU       0.042100
     25 C2           1.9500     2.7810     0.6760 ca         1 6JU      -0.077300
     26 C3           1.8320     3.4030    -0.5650 ca         1 6JU      -0.124000
     27 C14          2.9590     3.7590    -1.2920 ca         1 6JU      -0.127500
     28 C15          4.2280     3.4930    -0.7890 ca         1 6JU      -0.129000
     29 C16          4.3570     2.8720     0.4440 ca         1 6JU      -0.127500
     30 C17          3.2240     2.5190     1.1690 ca         1 6JU      -0.124000
     31 H1           0.2620     3.3270     1.8710 hc         1 6JU       0.054700
     32 H10          1.0280     1.8320     2.3490 hc         1 6JU       0.054700
     33 H11          0.8470     3.6070    -0.9690 ha         1 6JU       0.129000
     34 H12          2.8470     4.2440    -2.2530 ha         1 6JU       0.128500
     35 H13          5.1080     3.7660    -1.3570 ha         1 6JU       0.129000
     36 H14          5.3390     2.6580     0.8450 ha         1 6JU       0.128500
     37 H15          3.3350     2.0310     2.1310 ha         1 6JU       0.129000
@<TRIPOS>BOND
     1     1     2 2   
     2     1     3 1   
     3     1    24 1   
     4     2    10 1   
     5     2    16 1   
     6     3     4 ar  
     7     3     9 ar  
     8     4     5 ar  
     9     4    17 1   
    10     5     6 1   
    11     5     7 ar  
    12     7     8 ar  
    13     7    18 1   
    14     8     9 ar  
    15     8    19 1   
    16     9    10 1   
    17    10    11 1   
    18    11    12 1   
    19    11    20 1   
    20    11    21 1   
    21    12    13 2   
    22    12    14 1   
    23    14    15 1   
    24    14    22 1   
    25    15    23 1   
    26    24    25 1   
    27    24    31 1   
    28    24    32 1   
    29    25    26 ar  
    30    25    30 ar  
    31    26    27 ar  
    32    26    33 1   
    33    27    28 ar  
    34    27    34 1   
    35    28    29 ar  
    36    28    35 1   
    37    29    30 ar  
    38    29    36 1   
    39    30    37 1   
@<TRIPOS>SUBSTRUCTURE
     1 6JU         1 TEMP              0 ****  ****    0 ROOT
