@<TRIPOS>MOLECULE
6JW
   25    25     1     0     0
SMALL
No Charge or Current Charge


@<TRIPOS>ATOM
      1 C            3.1230     2.2800     0.0830 c3         1 6JW      -0.101100
      2 O            1.0610     0.4190     2.4060 o          1 6JW      -0.499500
      3 N            2.0370    -1.1130     1.1030 ns         1 6JW      -0.477000
      4 Br          -3.3970    -0.0060    -0.0360 br         1 6JW      -0.250000
      5 C1           1.5770     2.2520     0.0710 c3         1 6JW      -0.063400
      6 C2           0.9270     0.8210     0.0210 c6         1 6JW      -0.218000
      7 C3          -0.6390     0.9780     0.0150 c3         1 6JW      -0.059400
      8 C4          -1.4370    -0.3450    -0.0330 c3         1 6JW       0.076600
      9 C5           1.3430     0.0400     1.2820 c          1 6JW       0.585000
     10 C6           2.4230    -1.6990    -0.0510 c          1 6JW       0.635000
     11 C7           1.3600     0.1230    -1.2830 c          1 6JW       0.585000
     12 O2           1.0940     0.5750    -2.3840 o          1 6JW      -0.499500
     13 N1           2.0530    -1.0390    -1.1700 ns         1 6JW      -0.477000
     14 O1           3.0500    -2.7400    -0.0800 o          1 6JW      -0.525000
     15 H1           3.4820     3.3150     0.1190 hc         1 6JW       0.043700
     16 H2           3.5220     1.7550     0.9590 hc         1 6JW       0.043700
     17 H3           3.5340     1.8130    -0.8200 hc         1 6JW       0.043700
     18 H4           2.3010    -1.6000     1.9460 hn         1 6JW       0.351000
     19 H5           1.2240     2.7920     0.9600 hc         1 6JW       0.068700
     20 H6           1.2360     2.8480    -0.7860 hc         1 6JW       0.068700
     21 H7          -0.9630     1.5340     0.9050 hc         1 6JW       0.083200
     22 H8          -0.9510     1.5900    -0.8410 hc         1 6JW       0.083200
     23 H9          -1.2290    -0.9690     0.8450 h1         1 6JW       0.076200
     24 H10         -1.2170    -0.9110    -0.9480 h1         1 6JW       0.076200
     25 H11          2.3280    -1.4710    -2.0380 hn         1 6JW       0.351000
@<TRIPOS>BOND
     1     1     5 1   
     2     1    15 1   
     3     1    16 1   
     4     1    17 1   
     5     2     9 2   
     6     3     9 1   
     7     3    10 1   
     8     3    18 1   
     9     4     8 1   
    10     5     6 1   
    11     5    19 1   
    12     5    20 1   
    13     6     7 1   
    14     6     9 1   
    15     6    11 1   
    16     7     8 1   
    17     7    21 1   
    18     7    22 1   
    19     8    23 1   
    20     8    24 1   
    21    10    13 1   
    22    10    14 2   
    23    11    12 2   
    24    11    13 1   
    25    13    25 1   
@<TRIPOS>SUBSTRUCTURE
     1 6JW         1 TEMP              0 ****  ****    0 ROOT
