@<TRIPOS>MOLECULE
6JW
   25    25     1     0     0
SMALL
abcg2


@<TRIPOS>ATOM
      1 C            3.0870     2.1390     0.0630 c3         1 6JW      -0.101100
      2 O            0.9040     0.3920     2.3810 o          1 6JW      -0.499500
      3 N            2.1010    -1.0410     1.1410 ns         1 6JW      -0.477000
      4 BR          -3.3680     0.0940    -0.0490 br         1 6JW      -0.250000
      5 C1           1.5670     2.1750     0.0710 c3         1 6JW      -0.063400
      6 C2           0.8730     0.7870     0.0280 c6         1 6JW      -0.218000
      7 C3          -0.6530     1.0100     0.0290 c3         1 6JW      -0.059400
      8 C4          -1.4410    -0.2830    -0.0570 c3         1 6JW       0.076600
      9 C5           1.2720     0.0380     1.2860 c          1 6JW       0.585000
     10 C6           2.5530    -1.5900    -0.0350 c          1 6JW       0.635000
     11 C7           1.2840     0.1150    -1.2700 c          1 6JW       0.585000
     12 O2           0.9280     0.5370    -2.3440 o          1 6JW      -0.499500
     13 N1           2.1060    -0.9750    -1.1810 ns         1 6JW      -0.477000
     14 O1           3.2830    -2.5480    -0.0610 o          1 6JW      -0.525000
     15 H1           3.4750     3.1560     0.1000 hc         1 6JW       0.043700
     16 H2           3.4970     1.6080     0.9240 hc         1 6JW       0.043700
     17 H3           3.4870     1.6760    -0.8400 hc         1 6JW       0.043700
     18 H4           2.3990    -1.5120     1.9880 hn         1 6JW       0.351000
     19 H5           1.2090     2.6890     0.9650 hc         1 6JW       0.068700
     20 H6           1.2010     2.7440    -0.7850 hc         1 6JW       0.068700
     21 H7          -0.9140     1.5480     0.9400 hc         1 6JW       0.083200
     22 H8          -0.8990     1.6580    -0.8130 hc         1 6JW       0.083200
     23 H9          -1.2630    -0.9430     0.7920 h1         1 6JW       0.076200
     24 H10         -1.2480    -0.8330    -0.9770 h1         1 6JW       0.076200
     25 H11          2.4030    -1.4010    -2.0510 hn         1 6JW       0.351000
@<TRIPOS>BOND
     1     1     5 1   
     2     1    15 1   
     3     1    16 1   
     4     1    17 1   
     5     2     9 2   
     6     3     9 1   
     7     3    10 1   
     8     3    18 1   
     9     4     8 1   
    10     5     6 1   
    11     5    19 1   
    12     5    20 1   
    13     6     7 1   
    14     6     9 1   
    15     6    11 1   
    16     7     8 1   
    17     7    21 1   
    18     7    22 1   
    19     8    23 1   
    20     8    24 1   
    21    10    13 1   
    22    10    14 2   
    23    11    12 2   
    24    11    13 1   
    25    13    25 1   
@<TRIPOS>SUBSTRUCTURE
     1 6JW         1 TEMP              0 ****  ****    0 ROOT
