@<TRIPOS>MOLECULE
6JZ
   43    42     1     0     0
SMALL
No Charge or Current Charge


@<TRIPOS>ATOM
      1 C1          -7.4370    -1.2160     0.3850 c3         1 6JZ      -0.091100
      2 C2          -6.5220    -0.9230    -0.8150 c3         1 6JZ       0.161600
      3 O1          -5.5470     0.0430    -0.3940 os         1 6JZ      -0.448000
      4 C3          -4.6050     0.4240    -1.4180 c3         1 6JZ       0.163100
      5 C4          -3.6110     1.4570    -0.8330 c3         1 6JZ       0.161600
      6 O2          -2.7220     0.7880     0.0830 os         1 6JZ      -0.432500
      7 C5          -1.7490     1.6500     0.7060 c3         1 6JZ       0.161600
      8 C6          -0.8580     0.8070     1.6500 c3         1 6JZ       0.162100
      9 O3           0.0160    -0.0210     0.8570 os         1 6JZ      -0.433000
     10 C7           0.8940    -0.8680     1.6240 c3         1 6JZ       0.162100
     11 C8           1.7790    -1.6880     0.6550 c3         1 6JZ       0.161600
     12 O4           2.7480    -0.8120     0.0460 os         1 6JZ      -0.432500
     13 C9           3.6310    -1.4590    -0.8920 c3         1 6JZ       0.161600
     14 C10          4.6210    -0.4130    -1.4590 c3         1 6JZ       0.163100
     15 O5           5.5700    -0.0550    -0.4340 os         1 6JZ      -0.448000
     16 C11          6.5410     0.9210    -0.8390 c3         1 6JZ       0.161600
     17 C12          7.4640     1.1860     0.3610 c3         1 6JZ      -0.091100
     18 H1          -7.9450    -0.3020     0.7150 hc         1 6JZ       0.042200
     19 H1A         -8.2000    -1.9530     0.1080 hc         1 6JZ       0.042200
     20 H1B         -6.8570    -1.6190     1.2230 hc         1 6JZ       0.042200
     21 H2          -6.0340    -1.8520    -1.1400 h1         1 6JZ       0.016700
     22 H2A         -7.1220    -0.5330    -1.6480 h1         1 6JZ       0.016700
     23 H3          -4.0520    -0.4480    -1.7900 h1         1 6JZ       0.027450
     24 H3A         -5.1320     0.8820    -2.2660 h1         1 6JZ       0.027450
     25 H4          -3.0400     1.9040    -1.6570 h1         1 6JZ       0.026200
     26 H4A         -4.1680     2.2580    -0.3290 h1         1 6JZ       0.026200
     27 H5          -1.1210     2.1450    -0.0460 h1         1 6JZ       0.027700
     28 H5A         -2.2530     2.4270     1.2960 h1         1 6JZ       0.027700
     29 H6          -0.2680     1.4860     2.2800 h1         1 6JZ       0.027700
     30 H6A         -1.4920     0.1970     2.3060 h1         1 6JZ       0.027700
     31 H7           1.5330    -0.2730     2.2900 h1         1 6JZ       0.027700
     32 H7A          0.3090    -1.5610     2.2420 h1         1 6JZ       0.027700
     33 H8           2.2870    -2.4790     1.2230 h1         1 6JZ       0.027700
     34 H8A          1.1460    -2.1660    -0.1050 h1         1 6JZ       0.027700
     35 H9           4.1910    -2.2710    -0.4110 h1         1 6JZ       0.026200
     36 H9A          3.0540    -1.8870    -1.7220 h1         1 6JZ       0.026200
     37 H10          5.1410    -0.8500    -2.3220 h1         1 6JZ       0.027450
     38 H10A         4.0640     0.4680    -1.8070 h1         1 6JZ       0.027450
     39 H11          7.1360     0.5510    -1.6840 h1         1 6JZ       0.016700
     40 H11A         6.0510     1.8570    -1.1380 h1         1 6JZ       0.016700
     41 H12          7.9740     0.2650     0.6670 hc         1 6JZ       0.042200
     42 H12A         8.2250     1.9290     0.0970 hc         1 6JZ       0.042200
     43 H12B         6.8900     1.5690     1.2130 hc         1 6JZ       0.042200
@<TRIPOS>BOND
     1     1     2 1   
     2     1    18 1   
     3     1    19 1   
     4     1    20 1   
     5     2     3 1   
     6     2    21 1   
     7     2    22 1   
     8     3     4 1   
     9     4     5 1   
    10     4    23 1   
    11     4    24 1   
    12     5     6 1   
    13     5    25 1   
    14     5    26 1   
    15     6     7 1   
    16     7     8 1   
    17     7    27 1   
    18     7    28 1   
    19     8     9 1   
    20     8    29 1   
    21     8    30 1   
    22     9    10 1   
    23    10    11 1   
    24    10    31 1   
    25    10    32 1   
    26    11    12 1   
    27    11    33 1   
    28    11    34 1   
    29    12    13 1   
    30    13    14 1   
    31    13    35 1   
    32    13    36 1   
    33    14    15 1   
    34    14    37 1   
    35    14    38 1   
    36    15    16 1   
    37    16    17 1   
    38    16    39 1   
    39    16    40 1   
    40    17    41 1   
    41    17    42 1   
    42    17    43 1   
@<TRIPOS>SUBSTRUCTURE
     1 6JZ         1 TEMP              0 ****  ****    0 ROOT
