@<TRIPOS>MOLECULE
6JZ
   43    42     1     0     0
SMALL
abcg2


@<TRIPOS>ATOM
      1 C1          -6.7800    -1.5430    -0.3960 c3         1 6JZ      -0.091100
      2 C2          -5.8860    -0.7380    -1.3110 c3         1 6JZ       0.161600
      3 O1          -5.0470     0.0870    -0.5340 os         1 6JZ      -0.448000
      4 C3          -4.1650     0.8520    -1.3140 c3         1 6JZ       0.163100
      5 C4          -3.3170     1.7250    -0.4240 c3         1 6JZ       0.161600
      6 O2          -2.4940     0.9260     0.3860 os         1 6JZ      -0.432500
      7 C5          -1.6270     1.6840     1.1890 c3         1 6JZ       0.161600
      8 C6          -0.8080     0.7710     2.0660 c3         1 6JZ       0.162100
      9 O3           0.0180    -0.0410     1.2710 os         1 6JZ      -0.433000
     10 C7           0.8550    -0.8700     2.0360 c3         1 6JZ       0.162100
     11 C8           1.6690    -1.7550     1.1280 c3         1 6JZ       0.161600
     12 O4           2.5240    -0.9710     0.3360 os         1 6JZ      -0.432500
     13 C9           3.3530    -1.7430    -0.4940 c3         1 6JZ       0.161600
     14 C10          4.1870    -0.8410    -1.3680 c3         1 6JZ       0.163100
     15 O5           5.0580    -0.0770    -0.5750 os         1 6JZ      -0.448000
     16 C11          5.8940     0.7630    -1.3370 c3         1 6JZ       0.161600
     17 C12          6.7740     1.5680    -0.4080 c3         1 6JZ      -0.091100
     18 H1          -7.4100    -0.8970     0.2160 hc         1 6JZ       0.042200
     19 H1A         -7.4350    -2.1820    -0.9900 hc         1 6JZ       0.042200
     20 H1B         -6.1990    -2.1860     0.2660 hc         1 6JZ       0.042200
     21 H2          -5.2850    -1.4110    -1.9390 h1         1 6JZ       0.016700
     22 H2A         -6.4950    -0.1300    -1.9950 h1         1 6JZ       0.016700
     23 H3          -3.5200     0.2060    -1.9280 h1         1 6JZ       0.027450
     24 H3A         -4.7120     1.5060    -2.0080 h1         1 6JZ       0.027450
     25 H4          -2.7190     2.3840    -1.0690 h1         1 6JZ       0.026200
     26 H4A         -3.9590     2.3760     0.1870 h1         1 6JZ       0.026200
     27 H5          -0.9620     2.3070     0.5730 h1         1 6JZ       0.027700
     28 H5A         -2.1860     2.3680     1.8430 h1         1 6JZ       0.027700
     29 H6          -0.2140     1.3990     2.7440 h1         1 6JZ       0.027700
     30 H6A         -1.4710     0.1610     2.6960 h1         1 6JZ       0.027700
     31 H7           1.5210    -0.2740     2.6760 h1         1 6JZ       0.027700
     32 H7A          0.2700    -1.5180     2.7040 h1         1 6JZ       0.027700
     33 H8           2.2390    -2.4530     1.7580 h1         1 6JZ       0.027700
     34 H8A          1.0030    -2.3650     0.5010 h1         1 6JZ       0.027700
     35 H9           4.0050    -2.3990     0.1010 h1         1 6JZ       0.026200
     36 H9A          2.7590    -2.3960    -1.1500 h1         1 6JZ       0.026200
     37 H10          4.7430    -1.4740    -2.0740 h1         1 6JZ       0.027450
     38 H10A         3.5320    -0.1950    -1.9700 h1         1 6JZ       0.027450
     39 H11          6.5140     0.1680    -2.0220 h1         1 6JZ       0.016700
     40 H11A         5.2920     1.4360    -1.9630 h1         1 6JZ       0.016700
     41 H12          7.4020     0.9220     0.2060 hc         1 6JZ       0.042200
     42 H12A         7.4290     2.2160    -0.9890 hc         1 6JZ       0.042200
     43 H12B         6.1800     2.2010     0.2540 hc         1 6JZ       0.042200
@<TRIPOS>BOND
     1     1     2 1   
     2     1    18 1   
     3     1    19 1   
     4     1    20 1   
     5     2     3 1   
     6     2    21 1   
     7     2    22 1   
     8     3     4 1   
     9     4     5 1   
    10     4    23 1   
    11     4    24 1   
    12     5     6 1   
    13     5    25 1   
    14     5    26 1   
    15     6     7 1   
    16     7     8 1   
    17     7    27 1   
    18     7    28 1   
    19     8     9 1   
    20     8    29 1   
    21     8    30 1   
    22     9    10 1   
    23    10    11 1   
    24    10    31 1   
    25    10    32 1   
    26    11    12 1   
    27    11    33 1   
    28    11    34 1   
    29    12    13 1   
    30    13    14 1   
    31    13    35 1   
    32    13    36 1   
    33    14    15 1   
    34    14    37 1   
    35    14    38 1   
    36    15    16 1   
    37    16    17 1   
    38    16    39 1   
    39    16    40 1   
    40    17    41 1   
    41    17    42 1   
    42    17    43 1   
@<TRIPOS>SUBSTRUCTURE
     1 6JZ         1 TEMP              0 ****  ****    0 ROOT
