@<TRIPOS>MOLECULE
6K0
   52    55     1     0     0
SMALL
No Charge or Current Charge


@<TRIPOS>ATOM
      1 C5          -4.9620     1.8250    -0.2010 cc         1 6K0      -0.093100
      2 C6          -3.7930     1.1010    -0.0100 cd         1 6K0      -0.224400
      3 C7          -2.4770     1.8210     0.0260 c          1 6K0       0.616900
      4 C10         -1.3980     0.6400     2.0040 ca         1 6K0      -0.155000
      5 N12          0.9770     0.1610     2.0740 nb         1 6K0      -0.665000
      6 C13          1.0830     0.6840     0.8370 ca         1 6K0       0.487900
      7 C15          3.4340    -0.1120     0.4260 c          1 6K0       0.670100
      8 C20          7.6240    -1.8320    -0.0020 ca         1 6K0      -0.155000
      9 C21          8.5340    -1.0580    -0.7340 ca         1 6K0       0.193000
     10 C24          6.8290     0.6280    -1.0760 ca         1 6K0       0.170000
     11 C26         -0.0020     1.2360     0.1370 ca         1 6K0      -0.184000
     12 C28         -3.3960    -1.5140     0.3150 ca         1 6K0       0.430900
     13 C2          -7.4520     1.1780    -0.0440 c3         1 6K0       0.086300
     14 C3          -7.8950     1.6350    -1.4500 c3         1 6K0      -0.108600
     15 N4          -6.0000     0.8980     0.0000 na         1 6K0      -0.174400
     16 O8          -2.3720     2.9540    -0.4320 o          1 6K0      -0.526100
     17 C9          -1.2890     1.1960     0.7110 ca         1 6K0      -0.107600
     18 C11         -0.2520     0.1320     2.6380 ca         1 6K0       0.368900
     19 O16          3.3590    -1.2080     0.9650 o          1 6K0      -0.563100
     20 N17          4.5760     0.3880    -0.1830 ns         1 6K0      -0.177000
     21 C18          5.8930    -0.1370    -0.3440 ca         1 6K0      -0.083000
     22 C19          6.3070    -1.3790     0.1960 ca         1 6K0      -0.048000
     23 C23          8.1400     0.1730    -1.2720 ca         1 6K0      -0.187000
     24 F25          6.4630     1.8190    -1.6020 f          1 6K0      -0.176000
     25 C27         -4.1260    -0.3100     0.2300 ca         1 6K0      -0.219800
     26 N29         -2.0630    -1.6300     0.1100 nv         1 6K0      -1.063900
     27 N30         -4.0200    -2.6850     0.5020 nb         1 6K0      -0.298000
     28 C31         -5.3690    -2.6420     0.5800 ca         1 6K0       0.180900
     29 N32         -6.1500    -1.5480     0.4440 nb         1 6K0      -0.232000
     30 C33         -5.5060    -0.3780     0.2550 ca         1 6K0       0.141500
     31 H1          -5.1310     2.8820    -0.3900 h4         1 6K0       0.231000
     32 H2          -2.3550     0.6030     2.5170 ha         1 6K0       0.141000
     33 H3           7.9400    -2.7860     0.4130 ha         1 6K0       0.142000
     34 H4           0.1580     1.6900    -0.8380 ha         1 6K0       0.134000
     35 H5          -8.9540     2.3300     1.0460 hc         1 6K0       0.048867
     36 H6          -7.5720     1.8250     2.0380 hc         1 6K0       0.048867
     37 H7          -7.3930     3.1630     0.8810 hc         1 6K0       0.048867
     38 H8          -7.9870     0.2430     0.1700 h1         1 6K0       0.093700
     39 H9          -7.4190     2.5840    -1.7240 hc         1 6K0       0.048867
     40 H10         -7.6230     0.8840    -2.2010 hc         1 6K0       0.048867
     41 H11         -8.9820     1.7730    -1.4860 hc         1 6K0       0.048867
     42 H12         -0.3170    -0.2990     3.6370 h4         1 6K0       0.030100
     43 H13          2.5650     1.6070    -0.2100 hn         1 6K0       0.153000
     44 H14          4.4540     1.3060    -0.5920 hn         1 6K0       0.158000
     45 H15          5.6300    -2.0030     0.7710 ha         1 6K0       0.143000
     46 H16          8.8480     0.7720    -1.8380 ha         1 6K0       0.151000
     47 H17         -1.5480    -0.8360    -0.2520 hn         1 6K0       0.499000
     48 H18         -1.6720    -2.5550    -0.0470 hn         1 6K0       0.499000
     49 H19         -5.8800    -3.5910     0.7360 h5         1 6K0       0.047100
     50 N14          2.3830     0.7690     0.3230 ns         1 6K0      -0.342900
     51 C1          -7.8670     2.1880     1.0460 c3         1 6K0      -0.108600
     52 F22          9.7970    -1.4990    -0.9200 f          1 6K0      -0.170000
@<TRIPOS>BOND
     1     1     2 2   
     2     1    15 1   
     3     1    31 1   
     4     2     3 1   
     5     2    25 1   
     6     3    16 2   
     7     3    17 1   
     8     4    17 ar  
     9     4    18 ar  
    10     4    32 1   
    11     5     6 ar  
    12     5    18 ar  
    13     6    11 ar  
    14     6    50 1   
    15     7    19 2   
    16     7    20 1   
    17     7    50 1   
    18     8     9 ar  
    19     8    22 ar  
    20     8    33 1   
    21     9    23 ar  
    22     9    52 1   
    23    10    21 ar  
    24    10    23 ar  
    25    10    24 1   
    26    11    17 ar  
    27    11    34 1   
    28    12    25 ar  
    29    12    26 1   
    30    12    27 ar  
    31    13    14 1   
    32    13    15 1   
    33    13    38 1   
    34    13    51 1   
    35    14    39 1   
    36    14    40 1   
    37    14    41 1   
    38    15    30 1   
    39    18    42 1   
    40    20    21 1   
    41    20    44 1   
    42    21    22 ar  
    43    22    45 1   
    44    23    46 1   
    45    25    30 ar  
    46    26    47 1   
    47    26    48 1   
    48    27    28 ar  
    49    28    29 ar  
    50    28    49 1   
    51    29    30 ar  
    52    35    51 1   
    53    36    51 1   
    54    37    51 1   
    55    43    50 1   
@<TRIPOS>SUBSTRUCTURE
     1 6K0         1 TEMP              0 ****  ****    0 ROOT
