@<TRIPOS>MOLECULE
6K0
   52    55     1     0     0
SMALL
abcg2


@<TRIPOS>ATOM
      1 C5          -4.9040     1.7080    -0.1760 cc         1 6K0      -0.093100
      2 C6          -3.6930     1.0530    -0.1780 cd         1 6K0      -0.224400
      3 C7          -2.4380     1.7930    -0.2000 c          1 6K0       0.616900
      4 C10         -1.4090     0.5700     1.7440 ca         1 6K0      -0.155000
      5 N12          0.9610     0.2760     1.8870 nb         1 6K0      -0.665000
      6 C13          1.0950     0.8730     0.7140 ca         1 6K0       0.487900
      7 C15          3.4710     0.2630     0.4120 c          1 6K0       0.670100
      8 C20          7.6600    -1.0240     0.8990 ca         1 6K0      -0.155000
      9 C21          8.2220    -1.2960    -0.3330 ca         1 6K0       0.193000
     10 C24          6.4120    -0.2550    -1.4340 ca         1 6K0       0.170000
     11 C26          0.0090     1.3850    -0.0020 ca         1 6K0      -0.184000
     12 C28         -3.3470    -1.5980    -0.1750 ca         1 6K0       0.430900
     13 C2          -7.3440     1.1490     0.0650 c3         1 6K0       0.086300
     14 C3          -7.7420     2.2660    -0.8860 c3         1 6K0      -0.108600
     15 N4          -5.9230     0.8260    -0.0700 na         1 6K0      -0.174400
     16 O8          -2.3380     2.8810    -0.7360 o          1 6K0      -0.526100
     17 C9          -1.2610     1.2220     0.5220 ca         1 6K0      -0.107600
     18 C11         -0.2620     0.1310     2.3810 ca         1 6K0       0.368900
     19 O16          3.4700    -0.7470     1.0830 o          1 6K0      -0.563100
     20 N17          4.5890     0.7510    -0.2070 ns         1 6K0      -0.177000
     21 C18          5.8050     0.0520    -0.2230 ca         1 6K0      -0.083000
     22 C19          6.4550    -0.3390     0.9430 ca         1 6K0      -0.048000
     23 C23          7.6220    -0.9140    -1.5170 ca         1 6K0      -0.187000
     24 F25          5.8030     0.1120    -2.5670 f          1 6K0      -0.176000
     25 C27         -4.0060    -0.3490    -0.0850 ca         1 6K0      -0.219800
     26 N29         -2.0300    -1.7420    -0.3710 nv         1 6K0      -1.063900
     27 N30         -4.0630    -2.7210    -0.0580 nb         1 6K0      -0.298000
     28 C31         -5.3810    -2.6380     0.0760 ca         1 6K0       0.180900
     29 N32         -6.1230    -1.5490     0.0830 nb         1 6K0      -0.232000
     30 C33         -5.4000    -0.4360    -0.0110 ca         1 6K0       0.141500
     31 H1          -5.0810     2.7720    -0.2000 h4         1 6K0       0.231000
     32 H2          -2.3770     0.4240     2.2010 ha         1 6K0       0.141000
     33 H3           8.1560    -1.3240     1.8110 ha         1 6K0       0.142000
     34 H4           0.1590     1.8770    -0.9540 ha         1 6K0       0.134000
     35 H5          -8.7410     1.6740     1.6180 hc         1 6K0       0.048867
     36 H6          -7.4180     0.6500     2.1770 hc         1 6K0       0.048867
     37 H7          -7.1340     2.3650     1.8470 hc         1 6K0       0.048867
     38 H8          -7.8740     0.2400    -0.2230 h1         1 6K0       0.093700
     39 H9          -7.3090     3.2240    -0.5970 hc         1 6K0       0.048867
     40 H10         -7.4460     2.0440    -1.9110 hc         1 6K0       0.048867
     41 H11         -8.8250     2.3820    -0.8650 hc         1 6K0       0.048867
     42 H12         -0.3310    -0.3600     3.3440 h4         1 6K0       0.030100
     43 H13          2.4220     1.7230    -0.5660 hn         1 6K0       0.153000
     44 H14          4.5140     1.5620    -0.8020 hn         1 6K0       0.158000
     45 H15          6.0190    -0.0990     1.9020 ha         1 6K0       0.143000
     46 H16          8.0720    -1.1320    -2.4770 ha         1 6K0       0.151000
     47 H17         -1.4460    -0.9720    -0.6400 hn         1 6K0       0.499000
     48 H18         -1.6740    -2.6660    -0.5490 hn         1 6K0       0.499000
     49 H19         -5.9050    -3.5830     0.1750 h5         1 6K0       0.047100
     50 N14          2.3640     1.0510     0.1830 ns         1 6K0      -0.342900
     51 C1          -7.6740     1.4770     1.5150 c3         1 6K0      -0.108600
     52 F22          9.3900    -1.9470    -0.3900 f          1 6K0      -0.170000
@<TRIPOS>BOND
     1     1     2 2   
     2     1    15 1   
     3     1    31 1   
     4     2     3 1   
     5     2    25 1   
     6     3    16 2   
     7     3    17 1   
     8     4    17 ar  
     9     4    18 ar  
    10     4    32 1   
    11     5     6 ar  
    12     5    18 ar  
    13     6    11 ar  
    14     6    50 1   
    15     7    19 2   
    16     7    20 1   
    17     7    50 1   
    18     8     9 ar  
    19     8    22 ar  
    20     8    33 1   
    21     9    23 ar  
    22     9    52 1   
    23    10    21 ar  
    24    10    23 ar  
    25    10    24 1   
    26    11    17 ar  
    27    11    34 1   
    28    12    25 ar  
    29    12    26 1   
    30    12    27 ar  
    31    13    14 1   
    32    13    15 1   
    33    13    38 1   
    34    13    51 1   
    35    14    39 1   
    36    14    40 1   
    37    14    41 1   
    38    15    30 1   
    39    18    42 1   
    40    20    21 1   
    41    20    44 1   
    42    21    22 ar  
    43    22    45 1   
    44    23    46 1   
    45    25    30 ar  
    46    26    47 1   
    47    26    48 1   
    48    27    28 ar  
    49    28    29 ar  
    50    28    49 1   
    51    29    30 ar  
    52    35    51 1   
    53    36    51 1   
    54    37    51 1   
    55    43    50 1   
@<TRIPOS>SUBSTRUCTURE
     1 6K0         1 TEMP              0 ****  ****    0 ROOT
