@<TRIPOS>MOLECULE
6K1
   53    56     1     0     0
SMALL
bcc


@<TRIPOS>ATOM
      1 C5          -4.2150    -0.7370    -1.5980 cc         1 6K1      -0.045100
      2 C6          -3.2610    -0.2590    -0.7290 cd         1 6K1      -0.221400
      3 C7          -1.9060     0.0320    -1.1890 c          1 6K1       0.620900
      4 C10         -1.8120     2.3100    -0.1400 ca         1 6K1       0.417200
      5 C13          0.9130     2.1770     0.0520 ca         1 6K1      -0.056700
      6 C15          3.2360     1.3150    -0.0400 c          1 6K1       0.671100
      7 C17          4.6430     1.7740     0.3040 c3         1 6K1      -0.113100
      8 C20          7.0020    -1.1610     0.7520 ca         1 6K1      -0.118500
      9 C21          7.5490    -1.2530    -0.5170 ca         1 6K1       0.036400
     10 C24          6.2340     0.6040    -1.2450 ca         1 6K1      -0.101500
     11 C26         -3.9280    -0.1060     0.5380 ca         1 6K1      -0.351400
     12 C2          -6.6550    -1.3150    -1.5940 c3         1 6K1       0.055000
     13 C3          -6.5040    -2.7330    -2.1230 c3         1 6K1      -0.108100
     14 N4          -5.4080    -0.8640    -0.9740 na         1 6K1      -0.145100
     15 O8          -1.3970    -0.5960    -2.1020 o          1 6K1      -0.523100
     16 C9          -1.1600     1.1600    -0.5670 ca         1 6K1      -0.268900
     17 N11         -1.1590     3.3540     0.3510 nb         1 6K1      -0.645000
     18 C12          0.1540     3.2830     0.4550 ca         1 6K1       0.365200
     19 O16          2.9900     0.2200    -0.4990 o          1 6K1      -0.552100
     20 C18          5.6680     0.7210     0.0210 ca         1 6K1      -0.073300
     21 C19          6.0630    -0.1730     1.0100 ca         1 6K1      -0.101500
     22 C23          7.1740    -0.3770    -1.5230 ca         1 6K1      -0.118500
     23 C25          0.2290     1.0960    -0.4900 ca         1 6K1      -0.082000
     24 C27         -3.6070     0.1840     1.8840 ca         1 6K1       0.755200
     25 N28         -2.3690     0.4670     2.3150 nv         1 6K1      -0.950500
     26 N29         -4.5800     0.1910     2.8000 nb         1 6K1      -0.823000
     27 C30         -5.8150    -0.1320     2.4340 ca         1 6K1       0.705900
     28 N31         -6.2290    -0.5060     1.2410 nb         1 6K1      -0.758000
     29 C32         -5.2590    -0.4890     0.3300 ca         1 6K1       0.470800
     30 H1          -4.1080    -0.9540    -2.6500 h4         1 6K1       0.181000
     31 H2          -2.8900     2.3990    -0.2130 h4         1 6K1       0.038100
     32 H3           4.8600     2.6850    -0.2620 hc         1 6K1       0.068200
     33 H4           4.6670     2.0630     1.3590 hc         1 6K1       0.068200
     34 H5           7.3020    -1.8460     1.5340 ha         1 6K1       0.149000
     35 H6           5.9450     1.2910    -2.0300 ha         1 6K1       0.134000
     36 H7          -8.0620    -0.6460    -3.0760 hc         1 6K1       0.048533
     37 H8          -7.2180     0.6700    -2.2600 hc         1 6K1       0.048533
     38 H9          -6.3890    -0.2900    -3.4930 hc         1 6K1       0.048533
     39 H10         -7.3890    -1.3150    -0.7880 h1         1 6K1       0.095700
     40 H11         -5.7960    -2.7830    -2.9520 hc         1 6K1       0.048533
     41 H12         -6.1650    -3.4120    -1.3400 hc         1 6K1       0.048533
     42 H13         -7.4660    -3.0920    -2.4890 hc         1 6K1       0.048533
     43 H14          0.6550     4.1490     0.8780 h4         1 6K1       0.014100
     44 H15          2.6240     3.1300     0.6070 hn         1 6K1       0.318500
     45 H16          5.6390    -0.1000     2.0040 ha         1 6K1       0.134000
     46 H17          7.6070    -0.4530    -2.5110 ha         1 6K1       0.149000
     47 H18          0.7450     0.2140    -0.8330 ha         1 6K1       0.187000
     48 H19         -1.5630     0.2720     1.7480 hn         1 6K1       0.439800
     49 H20         -2.2150     0.5160     3.3090 hn         1 6K1       0.439800
     50 H21         -6.5630    -0.0990     3.2190 h5         1 6K1       0.046100
     51 N14          2.2900     2.2580     0.2230 ns         1 6K1      -0.476100
     52 C1          -7.1010    -0.3340    -2.6670 c3         1 6K1      -0.108100
     53 CL           8.7270    -2.4810    -0.8530 cl         1 6K1      -0.110400
@<TRIPOS>BOND
     1     1     2 2   
     2     1    14 1   
     3     1    30 1   
     4     2     3 1   
     5     2    11 1   
     6     3    15 2   
     7     3    16 1   
     8     4    16 ar  
     9     4    17 ar  
    10     4    31 1   
    11     5    18 ar  
    12     5    23 ar  
    13     5    51 1   
    14     6     7 1   
    15     6    19 2   
    16     6    51 1   
    17     7    20 1   
    18     7    32 1   
    19     7    33 1   
    20     8     9 ar  
    21     8    21 ar  
    22     8    34 1   
    23     9    22 ar  
    24     9    53 1   
    25    10    20 ar  
    26    10    22 ar  
    27    10    35 1   
    28    11    24 ar  
    29    11    29 ar  
    30    12    13 1   
    31    12    14 1   
    32    12    39 1   
    33    12    52 1   
    34    13    40 1   
    35    13    41 1   
    36    13    42 1   
    37    14    29 1   
    38    16    23 ar  
    39    17    18 ar  
    40    18    43 1   
    41    20    21 ar  
    42    21    45 1   
    43    22    46 1   
    44    23    47 1   
    45    24    25 1   
    46    24    26 ar  
    47    25    48 1   
    48    25    49 1   
    49    26    27 ar  
    50    27    28 ar  
    51    27    50 1   
    52    28    29 ar  
    53    36    52 1   
    54    37    52 1   
    55    38    52 1   
    56    44    51 1   
@<TRIPOS>SUBSTRUCTURE
     1 6K1         1 TEMP              0 ****  ****    0 ROOT
