@<TRIPOS>MOLECULE
6K1
   53    56     1     0     0
SMALL
No Charge or Current Charge


@<TRIPOS>ATOM
      1 C5          -4.1910    -1.1860    -1.5070 cc         1 6K1      -0.095100
      2 C6          -3.3000    -0.4560    -0.7330 cd         1 6K1      -0.221400
      3 C7          -1.8510    -0.4110    -1.1150 c          1 6K1       0.620900
      4 C10         -1.4350     2.0350    -0.8260 ca         1 6K1       0.351900
      5 C13          1.0990     1.6040     0.2010 ca         1 6K1      -0.084000
      6 C15          3.1900     0.4150     1.1180 c          1 6K1       0.604100
      7 C17          4.6000     0.7760     1.6030 c3         1 6K1      -0.113100
      8 C20          7.1830    -1.0300    -0.5900 ca         1 6K1      -0.100500
      9 C21          7.5320    -0.0200    -1.5010 ca         1 6K1       0.128000
     10 C24          5.9870     1.5070    -0.4030 ca         1 6K1      -0.083500
     11 C26         -4.0370     0.2580     0.3180 ca         1 6K1      -0.220800
     12 C2          -6.7630    -1.3450    -1.5100 c3         1 6K1       0.084300
     13 C3          -6.8940    -2.8760    -1.3650 c3         1 6K1      -0.108100
     14 N4          -5.4610    -0.8630    -0.9990 na         1 6K1      -0.174400
     15 O8          -1.3760    -1.2500    -1.8710 o          1 6K1      -0.523100
     16 C9          -0.9880     0.7150    -0.6520 ca         1 6K1      -0.203600
     17 N11         -0.6790     3.1110    -0.5110 nb         1 6K1      -0.645000
     18 C12          0.5540     2.8900    -0.0030 ca         1 6K1       0.299900
     19 O16          2.8030    -0.7470     1.0820 o          1 6K1      -0.552100
     20 C18          5.6330     0.4980     0.5160 ca         1 6K1      -0.073300
     21 C19          6.2350    -0.7720     0.4160 ca         1 6K1      -0.083500
     22 C23          6.9350     1.2470    -1.4090 ca         1 6K1      -0.100500
     23 C25          0.3100     0.4870    -0.1500 ca         1 6K1      -0.064000
     24 C27         -3.6830     0.9900     1.4700 ca         1 6K1       0.426900
     25 N28         -2.4190     1.1490     1.9290 nv         1 6K1      -1.060900
     26 N29         -4.6240     1.4990     2.2760 nb         1 6K1      -0.297000
     27 C30         -5.9090     1.2490     1.9360 ca         1 6K1       0.179900
     28 N31         -6.3350     0.5020     0.8930 nb         1 6K1      -0.232000
     29 C32         -5.3740    -0.0020     0.0920 ca         1 6K1       0.142500
     30 H1          -4.0360    -1.8220    -2.3740 h4         1 6K1       0.231000
     31 H2          -2.4190     2.2420    -1.2470 h4         1 6K1       0.038100
     32 H3           4.6390     1.8380     1.8710 hc         1 6K1       0.068200
     33 H4           4.8300     0.1730     2.4900 hc         1 6K1       0.068200
     34 H5           7.6460    -2.0110    -0.6640 ha         1 6K1       0.131000
     35 H6           5.5290     2.4920    -0.3410 ha         1 6K1       0.116000
     36 H7          -8.0040    -1.1870    -3.3020 hc         1 6K1       0.048533
     37 H8          -6.9420     0.2100    -3.0330 hc         1 6K1       0.048533
     38 H9          -6.2640    -1.3160    -3.6440 hc         1 6K1       0.048533
     39 H10         -7.5580    -0.8990    -0.8980 h1         1 6K1       0.095700
     40 H11         -6.1450    -3.3950    -1.9750 hc         1 6K1       0.048533
     41 H12         -6.7550    -3.1760    -0.3200 hc         1 6K1       0.048533
     42 H13         -7.8880    -3.2110    -1.6850 hc         1 6K1       0.048533
     43 H14          1.1320     3.7800     0.2450 h4         1 6K1       0.014100
     44 H15          2.8890     2.3970     0.8320 hn         1 6K1       0.152000
     45 H16          5.9680    -1.5610     1.1170 ha         1 6K1       0.116000
     46 H17          7.2060     2.0270    -2.1160 ha         1 6K1       0.131000
     47 H18          0.6750    -0.5320    -0.0540 ha         1 6K1       0.169000
     48 H19         -1.6800     0.5730     1.5450 hn         1 6K1       0.495000
     49 H20         -2.2910     1.4930     2.8770 hn         1 6K1       0.495000
     50 H21         -6.6770     1.6640     2.5860 h5         1 6K1       0.046100
     51 N14          2.4210     1.5050     0.7280 ns         1 6K1      -0.150000
     52 C1          -7.0060    -0.8830    -2.9620 c3         1 6K1      -0.108100
     53 Cl           8.7170    -0.3440    -2.7600 cl         1 6K1      -0.202000
@<TRIPOS>BOND
     1     1     2 2   
     2     1    14 1   
     3     1    30 1   
     4     2     3 1   
     5     2    11 1   
     6     3    15 2   
     7     3    16 1   
     8     4    16 ar  
     9     4    17 ar  
    10     4    31 1   
    11     5    18 ar  
    12     5    23 ar  
    13     5    51 1   
    14     6     7 1   
    15     6    19 2   
    16     6    51 1   
    17     7    20 1   
    18     7    32 1   
    19     7    33 1   
    20     8     9 ar  
    21     8    21 ar  
    22     8    34 1   
    23     9    22 ar  
    24     9    53 1   
    25    10    20 ar  
    26    10    22 ar  
    27    10    35 1   
    28    11    24 ar  
    29    11    29 ar  
    30    12    13 1   
    31    12    14 1   
    32    12    39 1   
    33    12    52 1   
    34    13    40 1   
    35    13    41 1   
    36    13    42 1   
    37    14    29 1   
    38    16    23 ar  
    39    17    18 ar  
    40    18    43 1   
    41    20    21 ar  
    42    21    45 1   
    43    22    46 1   
    44    23    47 1   
    45    24    25 1   
    46    24    26 ar  
    47    25    48 1   
    48    25    49 1   
    49    26    27 ar  
    50    27    28 ar  
    51    27    50 1   
    52    28    29 ar  
    53    36    52 1   
    54    37    52 1   
    55    38    52 1   
    56    44    51 1   
@<TRIPOS>SUBSTRUCTURE
     1 6K1         1 TEMP              0 ****  ****    0 ROOT
