@<TRIPOS>MOLECULE
6K2
   52    55     1     0     0
SMALL
abcg2


@<TRIPOS>ATOM
      1 C5          -1.9120    -0.3120    -0.6750 cc         1 6K2      -0.077100
      2 C6          -2.9060     0.1320     0.1720 cd         1 6K2      -0.239400
      3 C7          -3.2020     1.4940     0.5820 c          1 6K2       0.628900
      4 C10         -2.6520     3.8490    -0.0210 ca         1 6K2       0.372900
      5 C13          0.0230     3.3780     0.0280 ca         1 6K2      -0.108000
      6 C15          1.9990     2.1420    -0.6310 c          1 6K2       0.609100
      7 C17          3.5170     2.1640    -0.6220 c3         1 6K2      -0.115100
      8 C20          4.8330    -0.9430     1.0930 ca         1 6K2      -0.072000
      9 C21          4.9820    -1.8090     0.0100 ca         1 6K2      -0.010000
     10 C22          5.4530    -3.1390     0.2240 cg         1 6K2       0.319000
     11 C24          4.6760    -1.3810    -1.2820 ca         1 6K2      -0.072000
     12 C26         -0.8410     2.3410     0.3460 ca         1 6K2      -0.048000
     13 C28         -4.7270    -1.3700     1.3480 ca         1 6K2       0.161900
     14 C2          -1.0580    -2.4670    -1.6410 c3         1 6K2       0.086300
     15 C3           0.3710    -2.3310    -1.1330 c3         1 6K2      -0.111600
     16 N4          -1.9700    -1.6560    -0.8290 na         1 6K2      -0.175400
     17 O8          -4.2490     1.7680     1.1450 o          1 6K2      -0.528100
     18 C9          -2.2090     2.5640     0.2870 ca         1 6K2      -0.195600
     19 N11         -1.8300     4.8530    -0.2790 nb         1 6K2      -0.655000
     20 C12         -0.5240     4.6210    -0.2690 ca         1 6K2       0.327900
     21 O16          1.3700     1.2610    -1.1840 o          1 6K2      -0.589100
     22 C18          4.0610     0.7820    -0.4090 ca         1 6K2      -0.059300
     23 C19          4.3740     0.3440     0.8750 ca         1 6K2      -0.097500
     24 N23          5.8270    -4.2150     0.3970 n1         1 6K2      -0.443000
     25 C25          4.2170    -0.0920    -1.4810 ca         1 6K2      -0.097500
     26 C27         -3.6380    -1.0400     0.5520 ca         1 6K2      -0.148800
     27 N29         -5.1170    -2.6320     1.4680 nb         1 6K2      -0.196000
     28 C30         -4.4380    -3.5700     0.8070 ca         1 6K2       0.125900
     29 N31         -3.3900    -3.3890     0.0220 nb         1 6K2      -0.186000
     30 C32         -3.0160    -2.1280    -0.0860 ca         1 6K2       0.110500
     31 H1          -1.1610     0.2610    -1.1960 h4         1 6K2       0.241000
     32 H2          -3.7140     4.0630    -0.0730 h4         1 6K2       0.042100
     33 H3           3.8360     2.5550    -1.5920 hc         1 6K2       0.072200
     34 H4           3.8950     2.8500     0.1360 hc         1 6K2       0.072200
     35 H5           5.0740    -1.2750     2.0930 ha         1 6K2       0.129500
     36 H6           4.7960    -2.0540    -2.1200 ha         1 6K2       0.129500
     37 H7          -0.4500     1.3860     0.6670 ha         1 6K2       0.141000
     38 H8          -5.2900    -0.6210     1.8910 h4         1 6K2       0.044100
     39 H9          -0.5790    -2.7810    -3.7110 hc         1 6K2       0.051200
     40 H10         -2.2250    -2.2030    -3.4500 hc         1 6K2       0.051200
     41 H11         -0.8570    -1.0900    -3.3110 hc         1 6K2       0.051200
     42 H12         -1.3890    -3.4960    -1.4950 h1         1 6K2       0.092700
     43 H13          0.7550    -1.3180    -1.2640 hc         1 6K2       0.051200
     44 H14          0.4420    -2.5910    -0.0770 hc         1 6K2       0.051200
     45 H15          1.0200    -3.0050    -1.6900 hc         1 6K2       0.051200
     46 H16          0.1270     5.4580    -0.5000 h4         1 6K2       0.019100
     47 H17          1.9940     3.9400     0.3370 hn         1 6K2       0.160000
     48 H18          4.2600     1.0140     1.7170 ha         1 6K2       0.121500
     49 H19          3.9830     0.2370    -2.4850 ha         1 6K2       0.121500
     50 H20         -4.7840    -4.5900     0.9260 h5         1 6K2       0.049100
     51 N14          1.4090     3.1850     0.0100 ns         1 6K2      -0.153000
     52 C1          -1.1930    -2.1090    -3.1130 c3         1 6K2      -0.111600
@<TRIPOS>BOND
     1     1     2 2   
     2     1    16 1   
     3     1    31 1   
     4     2     3 1   
     5     2    26 1   
     6     3    17 2   
     7     3    18 1   
     8     4    18 ar  
     9     4    19 ar  
    10     4    32 1   
    11     5    12 ar  
    12     5    20 ar  
    13     5    51 1   
    14     6     7 1   
    15     6    21 2   
    16     6    51 1   
    17     7    22 1   
    18     7    33 1   
    19     7    34 1   
    20     8     9 ar  
    21     8    23 ar  
    22     8    35 1   
    23     9    10 1   
    24     9    11 ar  
    25    10    24 3   
    26    11    25 ar  
    27    11    36 1   
    28    12    18 ar  
    29    12    37 1   
    30    13    26 ar  
    31    13    27 ar  
    32    13    38 1   
    33    14    15 1   
    34    14    16 1   
    35    14    42 1   
    36    14    52 1   
    37    15    43 1   
    38    15    44 1   
    39    15    45 1   
    40    16    30 1   
    41    19    20 ar  
    42    20    46 1   
    43    22    23 ar  
    44    22    25 ar  
    45    23    48 1   
    46    25    49 1   
    47    26    30 ar  
    48    27    28 ar  
    49    28    29 ar  
    50    28    50 1   
    51    29    30 ar  
    52    39    52 1   
    53    40    52 1   
    54    41    52 1   
    55    47    51 1   
@<TRIPOS>SUBSTRUCTURE
     1 6K2         1 TEMP              0 ****  ****    0 ROOT
