@<TRIPOS>MOLECULE
6K2
   52    55     1     0     0
SMALL
No Charge or Current Charge


@<TRIPOS>ATOM
      1 C5          -2.3970    -0.3810    -1.0230 cc         1 6K2      -0.077100
      2 C6          -2.9590    -0.2900     0.2460 cd         1 6K2      -0.239400
      3 C7          -2.7340     0.8440     1.1970 c          1 6K2       0.628900
      4 C10         -2.0740     3.2400     1.0030 ca         1 6K2       0.372900
      5 C13          0.4460     2.6180     0.0520 ca         1 6K2      -0.108000
      6 C15          2.3810     1.2740    -0.9720 c          1 6K2       0.609100
      7 C17          3.8630     1.4600    -1.3200 c3         1 6K2      -0.115100
      8 C20          6.0120     1.0050     1.8300 ca         1 6K2      -0.072000
      9 C21          6.3820    -0.3500     1.7310 ca         1 6K2      -0.010000
     10 C22          7.2120    -0.9500     2.7390 cg         1 6K2       0.319000
     11 C24          5.9320    -1.1150     0.6370 ca         1 6K2      -0.072000
     12 C26         -0.4400     1.5680     0.3680 ca         1 6K2      -0.048000
     13 C28         -4.6120    -1.8270     1.5680 ca         1 6K2       0.161900
     14 C2          -2.5940    -2.1680    -2.8740 c3         1 6K2       0.086300
     15 C3          -1.0850    -2.4480    -3.0360 c3         1 6K2      -0.111600
     16 N4          -2.8980    -1.5900    -1.5480 na         1 6K2      -0.175400
     17 O8          -3.3410     0.9290     2.2570 o          1 6K2      -0.528100
     18 C9          -1.7320     1.8910     0.8300 ca         1 6K2      -0.195600
     19 N11         -1.2270     4.2560     0.7190 nb         1 6K2      -0.655000
     20 C12          0.0030     3.9420     0.2540 ca         1 6K2       0.327900
     21 O16          1.8050     0.2090    -1.1620 o          1 6K2      -0.589100
     22 C18          4.7490     0.8270    -0.2530 ca         1 6K2      -0.059300
     23 C19          5.1990     1.5900     0.8430 ca         1 6K2      -0.097500
     24 N23          7.8950    -1.4310     3.5560 n1         1 6K2      -0.443000
     25 C25          5.1200    -0.5280    -0.3490 ca         1 6K2      -0.097500
     26 C27         -3.8170    -1.4370     0.4770 ca         1 6K2      -0.148800
     27 N29         -5.3180    -2.9780     1.5000 nb         1 6K2      -0.196000
     28 C30         -5.2040    -3.6920     0.3520 ca         1 6K2       0.125900
     29 N31         -4.4570    -3.3740    -0.7330 nb         1 6K2      -0.186000
     30 C32         -3.7570    -2.2230    -0.6510 ca         1 6K2       0.110500
     31 H1          -1.7310     0.2740    -1.5780 h4         1 6K2       0.241000
     32 H2          -3.0580     3.5240     1.3750 h4         1 6K2       0.042100
     33 H3           4.0570     0.9830    -2.2880 hc         1 6K2       0.072200
     34 H4           4.0960     2.5290    -1.3920 hc         1 6K2       0.072200
     35 H5           6.3520     1.6060     2.6710 ha         1 6K2       0.129500
     36 H6           6.2100    -2.1640     0.5490 ha         1 6K2       0.129500
     37 H7          -0.1400     0.5260     0.2850 ha         1 6K2       0.141000
     38 H8          -4.6910    -1.2440     2.4840 h4         1 6K2       0.044100
     39 H9          -2.9660    -1.7520    -4.9870 hc         1 6K2       0.051200
     40 H10         -4.2180    -1.1260    -3.8970 hc         1 6K2       0.051200
     41 H11         -2.6490    -0.2980    -4.0150 hc         1 6K2       0.051200
     42 H12         -3.1070    -3.1360    -2.9500 h1         1 6K2       0.092700
     43 H13         -0.5040    -1.5190    -3.0000 hc         1 6K2       0.051200
     44 H14         -0.7290    -3.1070    -2.2340 hc         1 6K2       0.051200
     45 H15         -0.8840    -2.9410    -3.9950 hc         1 6K2       0.051200
     46 H16          0.6590     4.7840     0.0320 h4         1 6K2       0.019100
     47 H17          2.3710     3.2130    -0.3790 hn         1 6K2       0.160000
     48 H18          4.9200     2.6380     0.9330 ha         1 6K2       0.121500
     49 H19          4.7760    -1.1300    -1.1880 ha         1 6K2       0.121500
     50 H20         -5.7730    -4.6190     0.2970 h5         1 6K2       0.049100
     51 N14          1.7680     2.4020    -0.4370 ns         1 6K2      -0.153000
     52 C1          -3.1380    -1.2800    -4.0130 c3         1 6K2      -0.111600
@<TRIPOS>BOND
     1     1     2 2   
     2     1    16 1   
     3     1    31 1   
     4     2     3 1   
     5     2    26 1   
     6     3    17 2   
     7     3    18 1   
     8     4    18 ar  
     9     4    19 ar  
    10     4    32 1   
    11     5    12 ar  
    12     5    20 ar  
    13     5    51 1   
    14     6     7 1   
    15     6    21 2   
    16     6    51 1   
    17     7    22 1   
    18     7    33 1   
    19     7    34 1   
    20     8     9 ar  
    21     8    23 ar  
    22     8    35 1   
    23     9    10 1   
    24     9    11 ar  
    25    10    24 3   
    26    11    25 ar  
    27    11    36 1   
    28    12    18 ar  
    29    12    37 1   
    30    13    26 ar  
    31    13    27 ar  
    32    13    38 1   
    33    14    15 1   
    34    14    16 1   
    35    14    42 1   
    36    14    52 1   
    37    15    43 1   
    38    15    44 1   
    39    15    45 1   
    40    16    30 1   
    41    19    20 ar  
    42    20    46 1   
    43    22    23 ar  
    44    22    25 ar  
    45    23    48 1   
    46    25    49 1   
    47    26    30 ar  
    48    27    28 ar  
    49    28    29 ar  
    50    28    50 1   
    51    29    30 ar  
    52    39    52 1   
    53    40    52 1   
    54    41    52 1   
    55    47    51 1   
@<TRIPOS>SUBSTRUCTURE
     1 6K2         1 TEMP              0 ****  ****    0 ROOT
