@<TRIPOS>MOLECULE
6K3
   44    44     1     0     0
SMALL
No Charge or Current Charge


@<TRIPOS>ATOM
      1 C4          -3.3280     0.4700    -0.7590 c6         1 6K3       0.123300
      2 C5          -2.1670     1.1830    -0.0090 c6         1 6K3       0.148300
      3 C6          -2.4810     2.6890     0.2710 c3         1 6K3       0.167600
      4 C3          -3.0250    -1.0470    -0.9190 c6         1 6K3       0.161300
      5 CAR          8.4020     0.3680    -0.3620 c3         1 6K3      -0.088100
      6 CAQ          7.0560    -0.1740    -0.8820 c3         1 6K3      -0.074400
      7 CAP          5.8840     0.0860     0.0890 c3         1 6K3      -0.075400
      8 CAO          4.5350    -0.4570    -0.4320 c3         1 6K3      -0.074400
      9 CAN          3.3630    -0.1970     0.5390 c3         1 6K3      -0.074400
     10 CAM          2.0140    -0.7400     0.0180 c3         1 6K3      -0.082400
     11 CAL          0.8470    -0.4780     0.9880 c3         1 6K3       0.164600
     12 O1          -0.3410    -1.0240     0.3910 os         1 6K3      -0.489000
     13 C1          -1.5590    -0.8850     1.1500 c6         1 6K3       0.350300
     14 O5          -1.8970     0.5200     1.2590 os         1 6K3      -0.454000
     15 O6          -1.4270     3.3700     0.9820 oh         1 6K3      -0.711000
     16 F4          -3.4630     1.0400    -2.0470 f          1 6K3      -0.274000
     17 O3          -4.0920    -1.7290    -1.6160 oh         1 6K3      -0.637000
     18 C2          -2.7410    -1.6790     0.4840 c6         1 6K3       0.156300
     19 O2          -3.9380    -1.6480     1.3120 oh         1 6K3      -0.692000
     20 H1          -4.2750     0.6170    -0.2210 h1         1 6K3       0.090700
     21 H2          -1.2610     1.1410    -0.6310 h1         1 6K3       0.067700
     22 H3          -2.6630     3.1860    -0.6910 h1         1 6K3       0.034200
     23 H4          -3.4170     2.7410     0.8450 h1         1 6K3       0.034200
     24 H5          -2.1020    -1.1360    -1.5130 h1         1 6K3       0.059700
     25 H6           8.3500     1.4530    -0.2110 hc         1 6K3       0.031700
     26 H7           8.6680    -0.1040     0.5910 hc         1 6K3       0.031700
     27 H8           9.2010     0.1600    -1.0830 hc         1 6K3       0.031700
     28 H9           6.8360     0.2890    -1.8510 hc         1 6K3       0.036700
     29 H10          7.1510    -1.2530    -1.0570 hc         1 6K3       0.036700
     30 H11          6.1090    -0.3770     1.0580 hc         1 6K3       0.037700
     31 H12          5.7940     1.1660     0.2630 hc         1 6K3       0.037700
     32 H13          4.3100     0.0060    -1.4010 hc         1 6K3       0.038200
     33 H14          4.6250    -1.5370    -0.6060 hc         1 6K3       0.038200
     34 H15          3.5870    -0.6600     1.5080 hc         1 6K3       0.039700
     35 H16          3.2720     0.8830     0.7140 hc         1 6K3       0.039700
     36 H17          1.7860    -0.2750    -0.9480 hc         1 6K3       0.050200
     37 H18          2.1010    -1.8200    -0.1530 hc         1 6K3       0.050200
     38 H19          1.0530    -0.9590     1.9540 h1         1 6K3       0.036700
     39 H20          0.7430     0.6030     1.1520 h1         1 6K3       0.036700
     40 H21         -1.3940    -1.2920     2.1590 h2         1 6K3       0.068700
     41 H22         -1.7520     4.2810     1.1750 ho         1 6K3       0.504000
     42 H23         -4.2950    -1.1870    -2.4100 ho         1 6K3       0.452000
     43 H24         -2.4130    -2.7180     0.3330 h1         1 6K3       0.063700
     44 H25         -3.8040    -2.2930     2.0450 ho         1 6K3       0.505000
@<TRIPOS>BOND
     1     1     2 1   
     2     1     4 1   
     3     1    16 1   
     4     1    20 1   
     5     2     3 1   
     6     2    14 1   
     7     2    21 1   
     8     3    15 1   
     9     3    22 1   
    10     3    23 1   
    11     4    17 1   
    12     4    18 1   
    13     4    24 1   
    14     5     6 1   
    15     5    25 1   
    16     5    26 1   
    17     5    27 1   
    18     6     7 1   
    19     6    28 1   
    20     6    29 1   
    21     7     8 1   
    22     7    30 1   
    23     7    31 1   
    24     8     9 1   
    25     8    32 1   
    26     8    33 1   
    27     9    10 1   
    28     9    34 1   
    29     9    35 1   
    30    10    11 1   
    31    10    36 1   
    32    10    37 1   
    33    11    12 1   
    34    11    38 1   
    35    11    39 1   
    36    12    13 1   
    37    13    14 1   
    38    13    18 1   
    39    13    40 1   
    40    15    41 1   
    41    17    42 1   
    42    18    19 1   
    43    18    43 1   
    44    19    44 1   
@<TRIPOS>SUBSTRUCTURE
     1 6K3         1 TEMP              0 ****  ****    0 ROOT
