@<TRIPOS>MOLECULE
6K3
   44    44     1     0     0
SMALL
abcg2


@<TRIPOS>ATOM
      1 C4          -3.4580     0.4750    -0.5770 c6         1 6K3       0.123300
      2 C5          -2.3190     1.2360     0.0950 c6         1 6K3       0.148300
      3 C6          -2.7670     2.5970     0.5830 c3         1 6K3       0.167600
      4 C3          -3.0290    -0.9390    -0.9340 c6         1 6K3       0.161300
      5 CAR          8.4100     0.1810    -0.1710 c3         1 6K3      -0.088100
      6 CAQ          7.1140    -0.4470    -0.6640 c3         1 6K3      -0.074400
      7 CAP          5.8810     0.0960     0.0480 c3         1 6K3      -0.075400
      8 CAO          4.5820    -0.5370    -0.4340 c3         1 6K3      -0.074400
      9 CAN          3.3540    -0.0260     0.3080 c3         1 6K3      -0.074400
     10 CAM          2.0600    -0.6660    -0.1820 c3         1 6K3      -0.082400
     11 CAL          0.8660    -0.2120     0.6330 c3         1 6K3       0.164600
     12 O1          -0.3050    -0.8220     0.1140 os         1 6K3      -0.489000
     13 C1          -1.4080    -0.7890     0.9560 c6         1 6K3       0.350300
     14 O5          -1.8590     0.5100     1.2190 os         1 6K3      -0.454000
     15 O6          -1.6500     3.2890     1.0860 oh         1 6K3      -0.711000
     16 F4          -3.7970     1.1440    -1.7570 f          1 6K3      -0.274000
     17 O3          -4.0810    -1.6980    -1.4720 oh         1 6K3      -0.637000
     18 C2          -2.5100    -1.6390     0.3140 c6         1 6K3       0.156300
     19 O2          -3.5860    -1.7950     1.2040 oh         1 6K3      -0.692000
     20 H1          -4.3500     0.4640     0.0570 h1         1 6K3       0.090700
     21 H2          -1.5140     1.3700    -0.6410 h1         1 6K3       0.067700
     22 H3          -3.2300     3.1310    -0.2540 h1         1 6K3       0.034200
     23 H4          -3.5430     2.4600     1.3480 h1         1 6K3       0.034200
     24 H5          -2.1940    -0.8640    -1.6430 h1         1 6K3       0.059700
     25 H6           8.4140     1.2600    -0.3350 hc         1 6K3       0.031700
     26 H7           8.5470     0.0130     0.8990 hc         1 6K3       0.031700
     27 H8           9.2780    -0.2340    -0.6840 hc         1 6K3       0.031700
     28 H9           7.0130    -0.2820    -1.7410 hc         1 6K3       0.036700
     29 H10          7.1590    -1.5320    -0.5280 hc         1 6K3       0.036700
     30 H11          5.9850    -0.0670     1.1260 hc         1 6K3       0.037700
     31 H12          5.8310     1.1820    -0.0890 hc         1 6K3       0.037700
     32 H13          4.4640    -0.3520    -1.5080 hc         1 6K3       0.038200
     33 H14          4.6460    -1.6240    -0.3190 hc         1 6K3       0.038200
     34 H15          3.4740    -0.2200     1.3790 hc         1 6K3       0.039700
     35 H16          3.2880     1.0620     0.2010 hc         1 6K3       0.039700
     36 H17          1.9040    -0.4170    -1.2360 hc         1 6K3       0.050200
     37 H18          2.1450    -1.7550    -0.1210 hc         1 6K3       0.050200
     38 H19          1.0020    -0.4950     1.6850 h1         1 6K3       0.036700
     39 H20          0.7790     0.8800     0.6010 h1         1 6K3       0.036700
     40 H21         -1.1510    -1.1980     1.9440 h2         1 6K3       0.068700
     41 H22         -1.9410     4.1650     1.3540 ho         1 6K3       0.504000
     42 H23         -4.2720    -1.3700    -2.3560 ho         1 6K3       0.452000
     43 H24         -2.0800    -2.6090     0.0290 h1         1 6K3       0.063700
     44 H25         -3.3010    -2.3460     1.9400 ho         1 6K3       0.505000
@<TRIPOS>BOND
     1     1     2 1   
     2     1     4 1   
     3     1    16 1   
     4     1    20 1   
     5     2     3 1   
     6     2    14 1   
     7     2    21 1   
     8     3    15 1   
     9     3    22 1   
    10     3    23 1   
    11     4    17 1   
    12     4    18 1   
    13     4    24 1   
    14     5     6 1   
    15     5    25 1   
    16     5    26 1   
    17     5    27 1   
    18     6     7 1   
    19     6    28 1   
    20     6    29 1   
    21     7     8 1   
    22     7    30 1   
    23     7    31 1   
    24     8     9 1   
    25     8    32 1   
    26     8    33 1   
    27     9    10 1   
    28     9    34 1   
    29     9    35 1   
    30    10    11 1   
    31    10    36 1   
    32    10    37 1   
    33    11    12 1   
    34    11    38 1   
    35    11    39 1   
    36    12    13 1   
    37    13    14 1   
    38    13    18 1   
    39    13    40 1   
    40    15    41 1   
    41    17    42 1   
    42    18    19 1   
    43    18    43 1   
    44    19    44 1   
@<TRIPOS>SUBSTRUCTURE
     1 6K3         1 TEMP              0 ****  ****    0 ROOT
