@<TRIPOS>MOLECULE
6K4
   56    59     1     0     0
SMALL
bcc


@<TRIPOS>ATOM
      1 C4          -0.0870    -1.4130    -1.6640 c3         1 6K4       0.120400
      2 C7           1.8050     0.3260    -0.5640 cc         1 6K4      -0.045100
      3 C8           2.8120     1.0250     0.0580 cd         1 6K4      -0.214400
      4 C15         -0.6790     3.6150    -0.0240 ca         1 6K4      -0.061700
      5 C17         -2.4620     1.9920     0.4780 c          1 6K4       0.681100
      6 C20         -4.2280     0.5300    -0.3640 ca         1 6K4       0.416600
      7 C21         -4.6020    -0.6300     0.3030 ca         1 6K4      -0.207300
      8 C22         -4.7540    -1.8040    -0.4150 ca         1 6K4      -0.077000
      9 C28          3.7850     0.0410     0.4340 ca         1 6K4      -0.338400
     10 C2           1.1890    -2.0760    -1.1220 c3         1 6K4       0.089700
     11 C3           1.9210    -2.7960    -2.2530 c3         1 6K4      -0.100600
     12 O5          -0.9210    -2.4250    -2.1640 oh         1 6K4      -0.591800
     13 N6           2.0670    -1.0110    -0.5810 na         1 6K4      -0.161100
     14 O10          3.9400     2.9860     0.6320 o          1 6K4      -0.528100
     15 C11          1.6910     3.2860    -0.0050 ca         1 6K4      -0.250900
     16 C12          1.8280     4.5340    -0.6010 ca         1 6K4       0.421200
     17 N13          0.7860     5.3000    -0.8930 nb         1 6K4      -0.648000
     18 C14         -0.4280     4.8510    -0.6250 ca         1 6K4       0.371200
     19 O18         -1.7440     1.0700     0.8160 o          1 6K4      -0.584100
     20 C19         -3.9650     1.8110     0.3740 c3         1 6K4      -0.206700
     21 C23         -4.5230    -1.7630    -1.7790 ca         1 6K4      -0.096900
     22 CL          -4.6670    -3.1870    -2.7450 cl         1 6K4      -0.081400
     23 C25         -4.1680    -0.5610    -2.3740 ca         1 6K4       0.407200
     24 N26         -4.0230     0.5550    -1.6770 nb         1 6K4      -0.669000
     25 C27          0.4190     2.8380     0.3270 ca         1 6K4      -0.098000
     26 C29          5.0180    -0.0020     1.0730 ca         1 6K4       0.533200
     27 N30          5.6530    -1.1410     1.2680 nb         1 6K4      -0.779000
     28 C31          5.0700    -2.2740     0.8300 ca         1 6K4       0.907900
     29 N32          5.7670    -3.4180     1.0090 nv         1 6K4      -0.945500
     30 N33          3.8940    -2.3620     0.2120 nb         1 6K4      -0.794000
     31 C34          3.2850    -1.2060     0.0290 ca         1 6K4       0.499800
     32 H1          -0.5850    -0.8580    -0.8560 h1         1 6K4       0.034200
     33 H2           0.1750    -0.6960    -2.4520 h1         1 6K4       0.034200
     34 H3           0.9190     0.7230    -1.0260 h4         1 6K4       0.175000
     35 H4          -4.7660    -0.6200     1.3710 ha         1 6K4       0.152000
     36 H5          -5.0370    -2.7240     0.0760 ha         1 6K4       0.159000
     37 H6           0.1760    -3.8260    -0.3620 hc         1 6K4       0.055700
     38 H7           1.7050    -3.4960     0.4430 hc         1 6K4       0.055700
     39 H8           0.2840    -2.5050     0.8030 hc         1 6K4       0.055700
     40 H9           2.1700    -2.1020    -3.0580 hc         1 6K4       0.055700
     41 H10          2.8390    -3.2590    -1.8980 hc         1 6K4       0.055700
     42 H11          1.2900    -3.5800    -2.6660 hc         1 6K4       0.055700
     43 H12         -1.6610    -2.0070    -2.6120 ho         1 6K4       0.409000
     44 H13          2.8070     4.9180    -0.8630 h4         1 6K4       0.041100
     45 H14         -1.2580     5.4990    -0.8950 h4         1 6K4       0.016100
     46 H15         -2.6970     3.9070    -0.1260 hn         1 6K4       0.324500
     47 H16         -4.3700     1.7620     1.3860 hc         1 6K4       0.079700
     48 H17         -4.4460     2.6480    -0.1350 hc         1 6K4       0.079700
     49 H18         -3.9990    -0.5040    -3.4440 h4         1 6K4       0.035100
     50 H19          0.2890     1.9070     0.8510 ha         1 6K4       0.178000
     51 H20          5.5030     0.8990     1.4310 h4         1 6K4       0.042100
     52 H21          6.5360    -3.4060     1.6550 hn         1 6K4       0.434300
     53 H22          5.2810    -4.2920     0.9070 hn         1 6K4       0.434300
     54 C9           2.9020     2.4580     0.2670 c          1 6K4       0.627900
     55 C1           0.8200    -3.0330     0.0120 c3         1 6K4      -0.100600
     56 N16         -2.0050     3.2290     0.1560 ns         1 6K4      -0.459100
@<TRIPOS>BOND
     1     1    10 1   
     2     1    12 1   
     3     1    32 1   
     4     1    33 1   
     5     2     3 2   
     6     2    13 1   
     7     2    34 1   
     8     3     9 1   
     9     3    54 1   
    10     4    18 ar  
    11     4    25 ar  
    12     4    56 1   
    13     5    19 2   
    14     5    20 1   
    15     5    56 1   
    16     6     7 ar  
    17     6    20 1   
    18     6    24 ar  
    19     7     8 ar  
    20     7    35 1   
    21     8    21 ar  
    22     8    36 1   
    23     9    26 ar  
    24     9    31 ar  
    25    10    11 1   
    26    10    13 1   
    27    10    55 1   
    28    11    40 1   
    29    11    41 1   
    30    11    42 1   
    31    12    43 1   
    32    13    31 1   
    33    14    54 2   
    34    15    16 ar  
    35    15    25 ar  
    36    15    54 1   
    37    16    17 ar  
    38    16    44 1   
    39    17    18 ar  
    40    18    45 1   
    41    20    47 1   
    42    20    48 1   
    43    21    22 1   
    44    21    23 ar  
    45    23    24 ar  
    46    23    49 1   
    47    25    50 1   
    48    26    27 ar  
    49    26    51 1   
    50    27    28 ar  
    51    28    29 1   
    52    28    30 ar  
    53    29    52 1   
    54    29    53 1   
    55    30    31 ar  
    56    37    55 1   
    57    38    55 1   
    58    39    55 1   
    59    46    56 1   
@<TRIPOS>SUBSTRUCTURE
     1 6K4         1 TEMP              0 ****  ****    0 ROOT
