@<TRIPOS>MOLECULE
6K4
   56    59     1     0     0
SMALL
No Charge or Current Charge


@<TRIPOS>ATOM
      1 C4           0.3460    -2.1310    -1.6030 c3         1 6K4       0.143600
      2 C7           1.9490     0.0680    -0.5560 cc         1 6K4      -0.095100
      3 C8           2.9270     0.8470     0.0470 cd         1 6K4      -0.214400
      4 C15         -0.8340     3.2820    -0.1630 ca         1 6K4      -0.089000
      5 C17         -2.6650     1.7100     0.7090 c          1 6K4       0.614100
      6 C20         -4.8460     1.0070    -0.1750 ca         1 6K4       0.351300
      7 C21         -5.1230    -0.3740    -0.1190 ca         1 6K4      -0.124000
      8 C22         -5.7560    -0.9930    -1.2120 ca         1 6K4      -0.059000
      9 C28          4.0300     0.0030     0.4530 ca         1 6K4      -0.207800
     10 C2           1.7480    -2.5010    -0.9950 c3         1 6K4       0.119000
     11 C3           2.6050    -3.1760    -2.1060 c3         1 6K4      -0.100600
     12 O5          -0.3730    -3.2780    -2.0970 oh         1 6K4      -0.654000
     13 N6           2.4410    -1.2620    -0.4990 na         1 6K4      -0.190400
     14 O10          3.7880     2.9920     0.6420 o          1 6K4      -0.528100
     15 C11          1.5780     3.0270    -0.1790 ca         1 6K4      -0.185600
     16 C12          1.6540     4.1980    -0.9490 ca         1 6K4       0.355900
     17 N13          0.5620     4.8990    -1.3310 nb         1 6K4      -0.648000
     18 C14         -0.6510     4.4420    -0.9440 ca         1 6K4       0.305900
     19 O18         -1.9900     0.7120     0.9310 o          1 6K4      -0.584100
     20 C19         -4.1640     1.7190     0.9660 c3         1 6K4      -0.206700
     21 C23         -6.0880    -0.2020    -2.3230 ca         1 6K4       0.060000
     22 Cl          -6.8820    -0.9210    -3.7220 cl         1 6K4      -0.173000
     23 C25         -5.7740     1.1730    -2.2960 ca         1 6K4       0.341900
     24 N26         -5.1610     1.7740    -1.2430 nb         1 6K4      -0.669000
     25 C27          0.3130     2.5700     0.2460 ca         1 6K4      -0.080000
     26 C29          5.2510     0.2890     1.0890 ca         1 6K4       0.204900
     27 N30          6.1130    -0.7150     1.3570 nb         1 6K4      -0.253000
     28 C31          5.7200    -1.9460     0.9810 ca         1 6K4       0.381900
     29 N32          6.5820    -2.9550     1.2500 nv         1 6K4      -1.055900
     30 N33          4.5710    -2.2960     0.3740 nb         1 6K4      -0.268000
     31 C34          3.7090    -1.2910     0.1080 ca         1 6K4       0.171500
     32 H1          -0.2540    -1.6300    -0.8300 h1         1 6K4       0.034200
     33 H2           0.4930    -1.4140    -2.4210 h1         1 6K4       0.034200
     34 H3           1.0010     0.3430    -1.0070 h4         1 6K4       0.225000
     35 H4          -4.8480    -0.9540     0.7570 ha         1 6K4       0.134000
     36 H5          -5.9830    -2.0570    -1.1980 ha         1 6K4       0.141000
     37 H6           0.9820    -4.3850    -0.1400 hc         1 6K4       0.055700
     38 H7           2.4700    -3.8360     0.6180 hc         1 6K4       0.055700
     39 H8           0.9430    -3.0140     0.9840 hc         1 6K4       0.055700
     40 H9           2.7840    -2.4790    -2.9320 hc         1 6K4       0.055700
     41 H10          3.5780    -3.5080    -1.7290 hc         1 6K4       0.055700
     42 H11          2.1040    -4.0620    -2.5130 hc         1 6K4       0.055700
     43 H12         -1.2280    -2.9520    -2.4560 ho         1 6K4       0.448000
     44 H13          2.6170     4.5890    -1.2790 h4         1 6K4       0.041100
     45 H14         -1.5090     5.0280    -1.2740 h4         1 6K4       0.016100
     46 H15         -2.8590     3.6040     0.0180 hn         1 6K4       0.158000
     47 H16         -4.3700     1.1940     1.9050 hc         1 6K4       0.079700
     48 H17         -4.5330     2.7490     1.0280 hc         1 6K4       0.079700
     49 H18         -6.0180     1.8120    -3.1430 h4         1 6K4       0.035100
     50 H19          0.2420     1.6960     0.8890 ha         1 6K4       0.160000
     51 H20          5.5460     1.2930     1.3850 h4         1 6K4       0.042100
     52 H21          7.3510    -2.7790     1.8930 hn         1 6K4       0.489500
     53 H22          6.2480    -3.9140     1.1850 hn         1 6K4       0.489500
     54 C9           2.8500     2.3360     0.2050 c          1 6K4       0.627900
     55 C1           1.5250    -3.4910     0.1870 c3         1 6K4      -0.100600
     56 N16         -2.1590     2.8930     0.1880 ns         1 6K4      -0.133000
@<TRIPOS>BOND
     1     1    10 1   
     2     1    12 1   
     3     1    32 1   
     4     1    33 1   
     5     2     3 2   
     6     2    13 1   
     7     2    34 1   
     8     3     9 1   
     9     3    54 1   
    10     4    18 ar  
    11     4    25 ar  
    12     4    56 1   
    13     5    19 2   
    14     5    20 1   
    15     5    56 1   
    16     6     7 ar  
    17     6    20 1   
    18     6    24 ar  
    19     7     8 ar  
    20     7    35 1   
    21     8    21 ar  
    22     8    36 1   
    23     9    26 ar  
    24     9    31 ar  
    25    10    11 1   
    26    10    13 1   
    27    10    55 1   
    28    11    40 1   
    29    11    41 1   
    30    11    42 1   
    31    12    43 1   
    32    13    31 1   
    33    14    54 2   
    34    15    16 ar  
    35    15    25 ar  
    36    15    54 1   
    37    16    17 ar  
    38    16    44 1   
    39    17    18 ar  
    40    18    45 1   
    41    20    47 1   
    42    20    48 1   
    43    21    22 1   
    44    21    23 ar  
    45    23    24 ar  
    46    23    49 1   
    47    25    50 1   
    48    26    27 ar  
    49    26    51 1   
    50    27    28 ar  
    51    28    29 1   
    52    28    30 ar  
    53    29    52 1   
    54    29    53 1   
    55    30    31 ar  
    56    37    55 1   
    57    38    55 1   
    58    39    55 1   
    59    46    56 1   
@<TRIPOS>SUBSTRUCTURE
     1 6K4         1 TEMP              0 ****  ****    0 ROOT
