@<TRIPOS>MOLECULE
6K5
   52    55     1     0     0
SMALL
abcg2


@<TRIPOS>ATOM
      1 FAB         24.2570    -5.1820    16.8040 f          1 6K5      -0.108333
      2 CAG         23.7190    -4.7360    17.9620 c3         1 6K5       0.348300
      3 FAF         22.4160    -5.0750    17.9200 f          1 6K5      -0.108333
      4 FAK         23.7930    -3.3890    17.9100 f          1 6K5      -0.108333
      5 CAH         24.4360    -5.3120    19.1650 ca         1 6K5      -0.060300
      6 CAC         25.7140    -5.7860    18.9700 ca         1 6K5      -0.210000
      7 CAD         26.4060    -6.3740    20.0490 ca         1 6K5       0.619900
      8 NAA         27.6870    -6.8010    19.9050 nv         1 6K5      -1.072900
      9 NAE         25.8350    -6.5170    21.2530 nb         1 6K5      -0.737000
     10 CAJ         24.5960    -6.0620    21.4150 ca         1 6K5       0.421900
     11 CAI         23.8360    -5.4290    20.4350 cp         1 6K5      -0.210500
     12 CAM         22.4970    -4.9230    20.8180 cp         1 6K5       0.279500
     13 NAN         21.7490    -5.7400    21.5580 nb         1 6K5      -0.322000
     14 NAL         22.1640    -3.6920    20.4380 nb         1 6K5      -0.299000
     15 CAO         20.9280    -3.3070    20.8280 ca         1 6K5       0.446900
     16 NAU         20.5230    -2.0890    20.4490 nn         1 6K5      -0.776300
     17 CAZ         19.1820    -1.5060    20.4530 cy         1 6K5       0.245800
     18 CAV         21.0590    -1.1990    19.4210 cy         1 6K5       0.245800
     19 CBA         19.6790    -0.4800    19.3930 cy         1 6K5      -0.113000
     20 CBD         18.9540    -0.4850    18.0620 c3         1 6K5       0.148600
     21 CL          18.8210    -2.1440    17.3260 cl         1 6K5      -0.289000
     22 CBB         19.7600     0.9450    19.9180 c3         1 6K5       0.170600
     23 OBC         18.4360     1.4320    20.1280 oh         1 6K5      -0.669000
     24 NAP         20.0870    -4.0370    21.5690 nb         1 6K5      -0.345000
     25 CAQ         20.5460    -5.2440    21.9350 ca         1 6K5       0.445900
     26 NAR         19.7620    -6.0190    22.7140 nh         1 6K5      -0.778300
     27 CAS         20.1450    -7.3550    23.1560 c6         1 6K5       0.193300
     28 CAT         19.9810    -7.4580    24.6650 c6         1 6K5       0.133100
     29 OAY         18.6600    -7.1090    25.0710 os         1 6K5      -0.455000
     30 CAX         18.3350    -5.7790    24.6710 c6         1 6K5       0.133100
     31 CAW         18.4360    -5.6110    23.1620 c6         1 6K5       0.193300
     32 HAC1        26.1870    -5.7350    18.0000 ha         1 6K5       0.138000
     33 HAA1        28.0740    -7.3840    20.6300 hn         1 6K5       0.490500
     34 HAA2        28.0780    -6.8960    18.9830 hn         1 6K5       0.490500
     35 HAJ1        24.1640    -6.1900    22.4010 h4         1 6K5       0.036100
     36 HAZ2        18.8890    -1.0720    21.4100 h1         1 6K5       0.073450
     37 HAZ1        18.4110    -2.1960    20.1120 h1         1 6K5       0.073450
     38 HAV1        21.3320    -1.7120    18.4990 h1         1 6K5       0.073450
     39 HAV2        21.8940    -0.5830    19.7580 h1         1 6K5       0.073450
     40 HBD1        17.9350    -0.1280    18.1670 h1         1 6K5       0.077700
     41 HBD2        19.4840     0.1200    17.3290 h1         1 6K5       0.077700
     42 HBB1        20.3250     0.9430    20.8560 h1         1 6K5       0.033700
     43 HBB2        20.2970     1.5730    19.1980 h1         1 6K5       0.033700
     44 HBC1        18.4920     2.3330    20.4670 ho         1 6K5       0.450000
     45 HAS2        19.5000    -8.0910    22.6640 h1         1 6K5       0.072700
     46 HAS1        21.1740    -7.5480    22.8730 h1         1 6K5       0.072700
     47 HAT2        20.1510    -8.4830    24.9920 h1         1 6K5       0.055450
     48 HAT1        20.7050    -6.7980    25.1610 h1         1 6K5       0.055450
     49 HAX1        19.0100    -5.0710    25.1680 h1         1 6K5       0.055450
     50 HAX2        17.3140    -5.5900    25.0030 h1         1 6K5       0.055450
     51 HAW1        18.2630    -4.5770    22.8840 h1         1 6K5       0.072700
     52 HAW2        17.6860    -6.2400    22.6710 h1         1 6K5       0.072700
@<TRIPOS>BOND
     1     1     2 1   
     2     2     3 1   
     3     2     4 1   
     4     2     5 1   
     5     5     6 ar  
     6     5    11 ar  
     7     6     7 ar  
     8     6    32 1   
     9     7     8 1   
    10     7     9 ar  
    11     8    33 1   
    12     8    34 1   
    13     9    10 ar  
    14    10    11 ar  
    15    10    35 1   
    16    11    12 1   
    17    12    13 ar  
    18    12    14 ar  
    19    13    25 ar  
    20    14    15 ar  
    21    15    16 1   
    22    15    24 ar  
    23    16    17 1   
    24    16    18 1   
    25    17    19 1   
    26    17    36 1   
    27    17    37 1   
    28    18    19 1   
    29    18    38 1   
    30    18    39 1   
    31    19    20 1   
    32    19    22 1   
    33    20    21 1   
    34    20    40 1   
    35    20    41 1   
    36    22    23 1   
    37    22    42 1   
    38    22    43 1   
    39    23    44 1   
    40    24    25 ar  
    41    25    26 1   
    42    26    27 1   
    43    26    31 1   
    44    27    28 1   
    45    27    45 1   
    46    27    46 1   
    47    28    29 1   
    48    28    47 1   
    49    28    48 1   
    50    29    30 1   
    51    30    31 1   
    52    30    49 1   
    53    30    50 1   
    54    31    51 1   
    55    31    52 1   
@<TRIPOS>SUBSTRUCTURE
     1 6K5         1 TEMP              0 ****  ****    0 ROOT
