@<TRIPOS>MOLECULE
6K5
   52    55     1     0     0
SMALL
No Charge or Current Charge


@<TRIPOS>ATOM
      1 FAB         24.1690    -5.4530    16.7040 f          1 6K5      -0.108333
      2 CAG         23.6430    -4.9670    17.8530 c3         1 6K5       0.348300
      3 FAF         22.3760    -5.4400    17.9070 f          1 6K5      -0.108333
      4 FAK         23.5690    -3.6250    17.7000 f          1 6K5      -0.108333
      5 CAH         24.4720    -5.3610    19.0970 ca         1 6K5      -0.060300
      6 CAC         25.8000    -5.8140    18.9250 ca         1 6K5      -0.210000
      7 CAD         26.5360    -6.2200    20.0370 ca         1 6K5       0.619900
      8 NAA         27.7870    -6.6750    19.9730 nv         1 6K5      -1.072900
      9 NAE         26.0960    -6.2300    21.2800 nb         1 6K5      -0.737000
     10 CAJ         24.8340    -5.7920    21.4750 ca         1 6K5       0.421900
     11 CAI         23.9750    -5.3310    20.4430 cp         1 6K5      -0.210500
     12 CAM         22.6150    -4.8460    20.8340 cp         1 6K5       0.279500
     13 NAN         21.9340    -5.5680    21.7420 nb         1 6K5      -0.322000
     14 NAL         22.1500    -3.7090    20.2910 nb         1 6K5      -0.299000
     15 CAO         20.9280    -3.3200    20.6900 ca         1 6K5       0.446900
     16 NAU         20.4180    -2.1730    20.1420 nn         1 6K5      -0.776300
     17 CAZ         19.0270    -1.6470    20.1040 cy         1 6K5       0.245800
     18 CAV         20.8190    -1.4100    18.9320 cy         1 6K5       0.245800
     19 CBA         19.6020    -0.4600    19.2460 cy         1 6K5      -0.113000
     20 CBD         18.7570     0.0020    18.0340 c3         1 6K5       0.148600
     21 Cl          18.2620    -1.3570    16.9220 cl         1 6K5      -0.289000
     22 CBB         19.9810     0.7990    20.0600 c3         1 6K5       0.170600
     23 OBC         18.8300     1.4790    20.5790 oh         1 6K5      -0.669000
     24 NAP         20.1730    -3.9750    21.5860 nb         1 6K5      -0.345000
     25 CAQ         20.7200    -5.0970    22.0860 ca         1 6K5       0.445900
     26 NAR         19.9720    -5.8300    23.0430 nh         1 6K5      -0.778300
     27 CAS         20.3830    -7.2250    23.4490 c6         1 6K5       0.193300
     28 CAT         19.7710    -7.6710    24.8100 c6         1 6K5       0.133100
     29 OAY         18.3430    -7.4480    24.8360 os         1 6K5      -0.455000
     30 CAX         18.0050    -6.0540    24.6650 c6         1 6K5       0.133100
     31 CAW         18.5170    -5.5170    23.2960 c6         1 6K5       0.193300
     32 HAC1        26.2610    -5.8580    17.9440 ha         1 6K5       0.138000
     33 HAA1        28.0990    -7.1540    20.8100 hn         1 6K5       0.490500
     34 HAA2        28.0980    -7.0680    19.0910 hn         1 6K5       0.490500
     35 HAJ1        24.4970    -5.7890    22.5110 h4         1 6K5       0.036100
     36 HAZ2        18.6050    -1.3360    21.0680 h1         1 6K5       0.073450
     37 HAZ1        18.3130    -2.2890    19.5750 h1         1 6K5       0.073450
     38 HAV1        20.7360    -1.9730    17.9950 h1         1 6K5       0.073450
     39 HAV2        21.7970    -0.9140    18.9800 h1         1 6K5       0.073450
     40 HBD1        17.8360     0.4840    18.3840 h1         1 6K5       0.077700
     41 HBD2        19.3320     0.7220    17.4370 h1         1 6K5       0.077700
     42 HBB1        20.6390     0.4930    20.8850 h1         1 6K5       0.033700
     43 HBB2        20.5600     1.4690    19.4100 h1         1 6K5       0.033700
     44 HBC1        19.1600     2.2440    21.1010 ho         1 6K5       0.450000
     45 HAS2        20.0760    -7.9440    22.6740 h1         1 6K5       0.072700
     46 HAS1        21.4760    -7.3040    23.5450 h1         1 6K5       0.072700
     47 HAT2        19.9730    -8.7380    24.9760 h1         1 6K5       0.055450
     48 HAT1        20.2390    -7.1060    25.6300 h1         1 6K5       0.055450
     49 HAX1        18.4530    -5.4710    25.4830 h1         1 6K5       0.055450
     50 HAX2        16.9140    -5.9370    24.7250 h1         1 6K5       0.055450
     51 HAW1        18.3390    -4.4310    23.2880 h1         1 6K5       0.072700
     52 HAW2        17.8980    -5.9490    22.4950 h1         1 6K5       0.072700
@<TRIPOS>BOND
     1     1     2 1   
     2     2     3 1   
     3     2     4 1   
     4     2     5 1   
     5     5     6 ar  
     6     5    11 ar  
     7     6     7 ar  
     8     6    32 1   
     9     7     8 1   
    10     7     9 ar  
    11     8    33 1   
    12     8    34 1   
    13     9    10 ar  
    14    10    11 ar  
    15    10    35 1   
    16    11    12 1   
    17    12    13 ar  
    18    12    14 ar  
    19    13    25 ar  
    20    14    15 ar  
    21    15    16 1   
    22    15    24 ar  
    23    16    17 1   
    24    16    18 1   
    25    17    19 1   
    26    17    36 1   
    27    17    37 1   
    28    18    19 1   
    29    18    38 1   
    30    18    39 1   
    31    19    20 1   
    32    19    22 1   
    33    20    21 1   
    34    20    40 1   
    35    20    41 1   
    36    22    23 1   
    37    22    42 1   
    38    22    43 1   
    39    23    44 1   
    40    24    25 ar  
    41    25    26 1   
    42    26    27 1   
    43    26    31 1   
    44    27    28 1   
    45    27    45 1   
    46    27    46 1   
    47    28    29 1   
    48    28    47 1   
    49    28    48 1   
    50    29    30 1   
    51    30    31 1   
    52    30    49 1   
    53    30    50 1   
    54    31    51 1   
    55    31    52 1   
@<TRIPOS>SUBSTRUCTURE
     1 6K5         1 TEMP              0 ****  ****    0 ROOT
