@<TRIPOS>MOLECULE
6K7
   53    56     1     0     0
SMALL
abcg2


@<TRIPOS>ATOM
      1 C4          22.2450    -3.4780    22.0610 ca         1 6K7       0.420900
      2 C5          23.5380    -3.9730    21.7720 ca         1 6K7      -0.324000
      3 C6          24.3260    -3.2230    20.9180 cp         1 6K7       0.236500
      4 N1          23.9120    -2.0750    20.3600 nb         1 6K7      -0.263000
      5 N3          21.8170    -2.3410    21.4920 nb         1 6K7      -0.309000
      6 FAB         24.1860    -4.1230    18.2030 f          1 6K7      -0.107333
      7 FAF         25.9880    -4.2930    17.0240 f          1 6K7      -0.107333
      8 FAK         25.3300    -2.3470    17.6870 f          1 6K7      -0.107333
      9 CAH         26.2610    -3.8030    19.3290 ca         1 6K7      -0.068300
     10 CAC         27.5850    -4.1520    19.1820 ca         1 6K7      -0.200000
     11 CAD         28.3760    -4.3520    20.3310 ca         1 6K7       0.609900
     12 NAA         29.7030    -4.6390    20.2250 nv         1 6K7      -1.064900
     13 NAE         27.8610    -4.2430    21.5620 nb         1 6K7      -0.730000
     14 CAJ         26.5770    -3.9080    21.6790 ca         1 6K7       0.398900
     15 CAI         25.7120    -3.6530    20.6180 cp         1 6K7      -0.213500
     16 C2          22.6610    -1.7040    20.6710 ca         1 6K7       0.418900
     17 NAU         22.1990    -0.5740    20.0830 nn         1 6K7      -0.771300
     18 CAZ         22.9850     0.4960    19.4740 cy         1 6K7       0.234800
     19 CAV         21.1200     0.3050    20.5370 cy         1 6K7       0.234800
     20 CBA         21.8050     1.4780    19.7780 cy         1 6K7      -0.108000
     21 CBD         21.1220     1.8690    18.4820 c3         1 6K7       0.154600
     22 CL          19.4220     2.4930    18.6810 cl         1 6K7      -0.281000
     23 CBB         22.2550     2.6350    20.6510 c3         1 6K7       0.176600
     24 OBC         21.1320     3.2990    21.2270 oh         1 6K7      -0.651000
     25 NAR         21.3910    -4.1080    22.9190 nh         1 6K7      -0.778300
     26 CAS         21.6700    -5.4460    23.4320 c6         1 6K7       0.183800
     27 CAT         20.9790    -5.6540    24.7700 c6         1 6K7       0.140600
     28 OAY         19.5840    -5.3850    24.6970 os         1 6K7      -0.451000
     29 CAX         19.3670    -4.0340    24.2940 c6         1 6K7       0.140600
     30 CAW         19.9710    -3.7560    22.9310 c6         1 6K7       0.183800
     31 H5          23.9060    -4.9040    22.1660 ha         1 6K7       0.131000
     32 HAC         28.0210    -4.2920    18.2040 ha         1 6K7       0.139000
     33 H5T         30.1660    -4.9920    21.0480 hn         1 6K7       0.485500
     34 HAA         30.0610    -4.9600    19.3410 hn         1 6K7       0.485500
     35 HAJ         26.2000    -3.8160    22.6920 h4         1 6K7       0.027100
     36 HAZ2        23.2190     0.3420    18.4200 h1         1 6K7       0.069450
     37 HAZ1        23.9050     0.7260    20.0160 h1         1 6K7       0.069450
     38 HAV1        21.0920     0.4330    21.6210 h1         1 6K7       0.069450
     39 HAV2        20.1290     0.0220    20.1810 h1         1 6K7       0.069450
     40 HBD1        21.0220     1.0070    17.8280 h1         1 6K7       0.069700
     41 HBD2        21.6720     2.6540    17.9680 h1         1 6K7       0.069700
     42 HBB2        22.9010     2.2390    21.4410 h1         1 6K7       0.027200
     43 HBB1        22.8490     3.3300    20.0440 h1         1 6K7       0.027200
     44 HBC         21.4620     3.9330    21.8740 ho         1 6K7       0.444000
     45 HAS2        21.3300    -6.2030    22.7140 h1         1 6K7       0.061950
     46 HAS1        22.7380    -5.5750    23.5840 h1         1 6K7       0.061950
     47 HAT2        21.0880    -6.6920    25.0830 h1         1 6K7       0.056200
     48 HAT1        21.4370    -5.0040    25.5260 h1         1 6K7       0.056200
     49 HAX1        19.8010    -3.3570    25.0410 h1         1 6K7       0.056200
     50 HAX2        18.2890    -3.8810    24.2610 h1         1 6K7       0.056200
     51 HAW1        19.8640    -2.7040    22.6860 h1         1 6K7       0.061950
     52 HAW2        19.4420    -4.3420    22.1670 h1         1 6K7       0.061950
     53 CAG         25.4370    -3.6370    18.0710 c3         1 6K7       0.347300
@<TRIPOS>BOND
     1     1     2 ar  
     2     1     5 ar  
     3     1    25 1   
     4     2     3 ar  
     5     2    31 1   
     6     3     4 ar  
     7     3    15 1   
     8     4    16 ar  
     9     5    16 ar  
    10     6    53 1   
    11     7    53 1   
    12     8    53 1   
    13     9    10 ar  
    14     9    15 ar  
    15     9    53 1   
    16    10    11 ar  
    17    10    32 1   
    18    11    12 1   
    19    11    13 ar  
    20    12    33 1   
    21    12    34 1   
    22    13    14 ar  
    23    14    15 ar  
    24    14    35 1   
    25    16    17 1   
    26    17    18 1   
    27    17    19 1   
    28    18    20 1   
    29    18    36 1   
    30    18    37 1   
    31    19    20 1   
    32    19    38 1   
    33    19    39 1   
    34    20    21 1   
    35    20    23 1   
    36    21    22 1   
    37    21    40 1   
    38    21    41 1   
    39    23    24 1   
    40    23    42 1   
    41    23    43 1   
    42    24    44 1   
    43    25    26 1   
    44    25    30 1   
    45    26    27 1   
    46    26    45 1   
    47    26    46 1   
    48    27    28 1   
    49    27    47 1   
    50    27    48 1   
    51    28    29 1   
    52    29    30 1   
    53    29    49 1   
    54    29    50 1   
    55    30    51 1   
    56    30    52 1   
@<TRIPOS>SUBSTRUCTURE
     1 6K7         1 TEMP              0 ****  ****    0 ROOT
