@<TRIPOS>MOLECULE
6K7
   53    56     1     0     0
SMALL
No Charge or Current Charge


@<TRIPOS>ATOM
      1 C4          22.3490    -3.4420    22.1860 ca         1 6K7       0.420900
      2 C5          23.5910    -3.9850    21.8190 ca         1 6K7      -0.324000
      3 C6          24.4370    -3.2220    20.9920 cp         1 6K7       0.236500
      4 N1          24.0630    -1.9960    20.5970 nb         1 6K7      -0.263000
      5 N3          21.9850    -2.2200    21.7600 nb         1 6K7      -0.309000
      6 FAB         24.1530    -3.6340    18.0700 f          1 6K7      -0.107333
      7 FAF         25.9270    -3.6550    16.8390 f          1 6K7      -0.107333
      8 FAK         25.4100    -1.8580    17.9340 f          1 6K7      -0.107333
      9 CAH         26.2670    -3.6920    19.2270 ca         1 6K7      -0.068300
     10 CAC         27.5820    -4.1680    19.0210 ca         1 6K7      -0.200000
     11 CAD         28.3160    -4.6430    20.1080 ca         1 6K7       0.609900
     12 NAA         29.5580    -5.1240    20.0120 nv         1 6K7      -1.064900
     13 NAE         27.8850    -4.6990    21.3550 nb         1 6K7      -0.730000
     14 CAJ         26.6350    -4.2400    21.5790 ca         1 6K7       0.398900
     15 CAI         25.7820    -3.7160    20.5750 cp         1 6K7      -0.213500
     16 C2          22.8570    -1.5520    20.9880 ca         1 6K7       0.418900
     17 NAU         22.4780    -0.3080    20.5500 nn         1 6K7      -0.771300
     18 CAZ         23.2580     0.7980    19.9420 cy         1 6K7       0.234800
     19 CAV         21.3990     0.6090    20.9980 cy         1 6K7       0.234800
     20 CBA         21.8910     1.5770    19.8590 cy         1 6K7      -0.108000
     21 CBD         21.1790     1.4210    18.4900 c3         1 6K7       0.154600
     22 Cl          19.3730     1.6770    18.5490 cl         1 6K7      -0.281000
     23 CBB         21.9930     3.0740    20.2310 c3         1 6K7       0.176600
     24 OBC         20.7490     3.6260    20.6770 oh         1 6K7      -0.651000
     25 NAR         21.4260    -4.1360    23.0090 nh         1 6K7      -0.778300
     26 CAS         21.7920    -5.4370    23.6690 c6         1 6K7       0.183800
     27 CAT         20.8770    -5.7870    24.8810 c6         1 6K7       0.140600
     28 OAY         19.4810    -5.6840    24.5230 os         1 6K7      -0.451000
     29 CAX         19.1230    -4.3500    24.0990 c6         1 6K7       0.140600
     30 CAW         19.9410    -3.9250    22.8440 c6         1 6K7       0.183800
     31 H5          23.8970    -4.9760    22.1350 ha         1 6K7       0.131000
     32 HAC         28.0340    -4.1750    18.0350 ha         1 6K7       0.139000
     33 H5T         29.8690    -5.6470    20.8220 hn         1 6K7       0.485500
     34 HAA         29.8570    -5.4760    19.1090 hn         1 6K7       0.485500
     35 HAJ         26.2990    -4.2770    22.6150 h4         1 6K7       0.027100
     36 HAZ2        23.7140     0.5860    18.9670 h1         1 6K7       0.069450
     37 HAZ1        23.9990     1.2520    20.6120 h1         1 6K7       0.069450
     38 HAV1        21.5300     1.0080    22.0120 h1         1 6K7       0.069450
     39 HAV2        20.3730     0.2450    20.8680 h1         1 6K7       0.069450
     40 HBD1        21.3360     0.4010    18.1160 h1         1 6K7       0.069700
     41 HBD2        21.6010     2.1260    17.7620 h1         1 6K7       0.069700
     42 HBB2        22.7400     3.1720    21.0300 h1         1 6K7       0.027200
     43 HBB1        22.3720     3.6270    19.3620 h1         1 6K7       0.027200
     44 HBC         20.9100     4.5760    20.8700 ho         1 6K7       0.444000
     45 HAS2        21.7380    -6.2560    22.9380 h1         1 6K7       0.061950
     46 HAS1        22.8260    -5.3990    24.0440 h1         1 6K7       0.061950
     47 HAT2        21.0890    -6.8100    25.2230 h1         1 6K7       0.056200
     48 HAT1        21.0870    -5.1010    25.7140 h1         1 6K7       0.056200
     49 HAX1        19.3120    -3.6460    24.9220 h1         1 6K7       0.056200
     50 HAX2        18.0480    -4.3210    23.8680 h1         1 6K7       0.056200
     51 HAW1        19.7070    -2.8700    22.6450 h1         1 6K7       0.061950
     52 HAW2        19.5800    -4.5010    21.9790 h1         1 6K7       0.061950
     53 CAG         25.4360    -3.2080    18.0180 c3         1 6K7       0.347300
@<TRIPOS>BOND
     1     1     2 ar  
     2     1     5 ar  
     3     1    25 1   
     4     2     3 ar  
     5     2    31 1   
     6     3     4 ar  
     7     3    15 1   
     8     4    16 ar  
     9     5    16 ar  
    10     6    53 1   
    11     7    53 1   
    12     8    53 1   
    13     9    10 ar  
    14     9    15 ar  
    15     9    53 1   
    16    10    11 ar  
    17    10    32 1   
    18    11    12 1   
    19    11    13 ar  
    20    12    33 1   
    21    12    34 1   
    22    13    14 ar  
    23    14    15 ar  
    24    14    35 1   
    25    16    17 1   
    26    17    18 1   
    27    17    19 1   
    28    18    20 1   
    29    18    36 1   
    30    18    37 1   
    31    19    20 1   
    32    19    38 1   
    33    19    39 1   
    34    20    21 1   
    35    20    23 1   
    36    21    22 1   
    37    21    40 1   
    38    21    41 1   
    39    23    24 1   
    40    23    42 1   
    41    23    43 1   
    42    24    44 1   
    43    25    26 1   
    44    25    30 1   
    45    26    27 1   
    46    26    45 1   
    47    26    46 1   
    48    27    28 1   
    49    27    47 1   
    50    27    48 1   
    51    28    29 1   
    52    29    30 1   
    53    29    49 1   
    54    29    50 1   
    55    30    51 1   
    56    30    52 1   
@<TRIPOS>SUBSTRUCTURE
     1 6K7         1 TEMP              0 ****  ****    0 ROOT
