@<TRIPOS>MOLECULE
6K9
  111   119     1     0     0
SMALL
No Charge or Current Charge


@<TRIPOS>ATOM
      1 C10          5.3500     2.8170     1.6020 c5         1 6K9       0.132300
      2 O10          3.8880     2.9930     1.6840 os         1 6K9      -0.432000
      3 C11          5.8720     1.5410     2.3530 c5         1 6K9       0.098300
      4 O11          4.9800     0.4070     2.2080 os         1 6K9      -0.457000
      5 C12          7.1700     1.1860     1.5420 c5         1 6K9       0.122300
      6 O12          7.1690     2.0220     0.3660 os         1 6K9      -0.429000
      7 C13          6.9480    -0.2670     1.0670 c5         1 6K9      -0.155400
      8 C14          5.4090    -0.3890     1.0910 c5         1 6K9       0.404000
      9 C15          4.8850    -1.8400     1.2850 c3         1 6K9      -0.047400
     10 C16          4.8780    -2.7260     0.0100 c3         1 6K9      -0.061400
     11 C17          3.5330    -2.7260    -0.7670 c5         1 6K9       0.166300
     12 C18          3.6310    -3.2570    -2.2160 c5         1 6K9      -0.075200
     13 C19          2.2380    -3.7830    -2.4480 c2         1 6K9      -0.149400
     14 C20          1.6250    -4.1040    -1.0930 c5         1 6K9       0.201500
     15 C21          0.2550    -3.4250    -0.8350 c3         1 6K9      -0.070400
     16 C22         -0.3010    -3.6330     0.5970 c3         1 6K9      -0.064400
     17 C23         -1.8380    -3.8540     0.6980 c6         1 6K9       0.172300
     18 C24         -2.2950    -4.0440     2.1620 c6         1 6K9      -0.104400
     19 C25         -3.8300    -4.2180     2.2320 c6         1 6K9      -0.024500
     20 C26         -4.5230    -3.0570     1.4960 c2         1 6K9      -0.156400
     21 C27         -3.9600    -2.8580     0.0680 c6         1 6K9       0.212500
     22 C28         -4.5130    -1.6190    -0.6960 c3         1 6K9      -0.063400
     23 C29         -4.0890    -0.2300    -0.1540 c5         1 6K9       0.170300
     24 C30         -3.2730     0.6710    -1.1150 c5         1 6K9      -0.089700
     25 C31         -3.2960     1.9460    -0.2240 c5         1 6K9       0.153300
     26 C32         -4.8010     1.9610     0.2650 c5         1 6K9       0.137300
     27 C33         -5.7970     2.8630    -0.5230 c3         1 6K9      -0.113400
     28 C34         -7.2630     2.8120    -0.0270 c3         1 6K9       0.184300
     29 C35         -8.1830     3.8200    -0.7940 c3         1 6K9       0.150800
     30 C36          1.6430    -3.9030    -3.6460 c2         1 6K9      -0.300000
     31 C37         -4.2970    -4.4220     3.7020 c3         1 6K9      -0.084100
     32 C04          0.6500     1.9110    -0.0390 c6         1 6K9      -0.115400
     33 C03          1.2410     1.7650    -1.4710 c6         1 6K9       0.183300
     34 C05          1.5640     2.7800     0.8620 c6         1 6K9      -0.072400
     35 C02          0.5010     0.7320    -2.3520 c3         1 6K9      -0.188400
     36 C01         -1.0070     0.9580    -2.4380 c          1 6K9       0.571100
     37 C39         -1.8730     0.1040    -1.4930 c3         1 6K9      -0.178400
     38 O01         -1.4860     1.7200    -3.2680 o          1 6K9      -0.513100
     39 O32         -5.2450     0.5880     0.1010 os         1 6K9      -0.466000
     40 C38         -5.5210    -2.3200     2.0350 c2         1 6K9      -0.294000
     41 N35         -9.5840     3.8800    -0.2970 n8         1 6K9      -0.975200
     42 O31         -2.9870     3.0940    -1.0520 os         1 6K9      -0.432000
     43 O34         -7.7420     1.4700    -0.1730 oh         1 6K9      -0.646000
     44 O27         -2.5180    -2.7240     0.1140 os         1 6K9      -0.469000
     45 O20          2.6200    -3.6600    -0.1330 os         1 6K9      -0.474000
     46 C06          2.9940     2.1990     0.8570 c6         1 6K9       0.134300
     47 C07          3.4970     2.0860    -0.6070 c6         1 6K9       0.124300
     48 O07          2.5920     1.2730    -1.3920 os         1 6K9      -0.439000
     49 C08          4.9220     1.5000    -0.6130 c6         1 6K9       0.178300
     50 O14          4.8600     0.1120    -0.1540 os         1 6K9      -0.479000
     51 C09          5.8260     2.5090     0.1590 c5         1 6K9       0.095300
     52 C40         -2.6880     4.3270    -0.3740 c3         1 6K9       0.149900
     53 H101         5.8420     3.7180     1.9930 h1         1 6K9       0.090700
     54 H111         6.0640     1.7310     3.4170 h1         1 6K9       0.097700
     55 H121         8.1050     1.3260     2.1020 h1         1 6K9       0.091700
     56 H131         7.3720    -0.4640     0.0760 hc         1 6K9       0.077200
     57 H132         7.4130    -0.9730     1.7630 hc         1 6K9       0.077200
     58 H151         5.4970    -2.3370     2.0460 hc         1 6K9       0.065700
     59 H152         3.8720    -1.8120     1.7020 hc         1 6K9       0.065700
     60 H161         5.6930    -2.4070    -0.6520 hc         1 6K9       0.046700
     61 H162         5.1210    -3.7560     0.2970 hc         1 6K9       0.046700
     62 H171         3.0840    -1.7220    -0.7590 h1         1 6K9       0.081700
     63 H181         3.9160    -2.4780    -2.9320 hc         1 6K9       0.061200
     64 H182         4.3650    -4.0670    -2.2930 hc         1 6K9       0.061200
     65 H201         1.4960    -5.1890    -0.9710 h1         1 6K9       0.048700
     66 H211         0.3200    -2.3510    -1.0370 hc         1 6K9       0.047200
     67 H212        -0.4690    -3.8250    -1.5550 hc         1 6K9       0.047200
     68 H222         0.1920    -4.5090     1.0370 hc         1 6K9       0.054700
     69 H221         0.0000    -2.7810     1.2180 hc         1 6K9       0.054700
     70 H231        -2.0950    -4.7540     0.1180 h1         1 6K9       0.026700
     71 H242        -1.7960    -4.9200     2.5970 hc         1 6K9       0.051700
     72 H241        -1.9900    -3.1740     2.7610 hc         1 6K9       0.051700
     73 HBN         -4.0890    -5.1480     1.7060 hc         1 6K9       0.047700
     74 H271        -4.2050    -3.7490    -0.5290 h1         1 6K9       0.037700
     75 H282        -4.2010    -1.7040    -1.7430 hc         1 6K9       0.065200
     76 H281        -5.6060    -1.6850    -0.7420 hc         1 6K9       0.065200
     77 H291        -3.5560    -0.3740     0.7970 h1         1 6K9       0.052700
     78 H301        -3.8270     0.8330    -2.0480 hc         1 6K9       0.090700
     79 H311        -2.5890     1.8760     0.6140 h1         1 6K9       0.041700
     80 H321        -4.8490     2.2210     1.3310 h1         1 6K9       0.034700
     81 H332        -5.4730     3.9070    -0.4610 hc         1 6K9       0.062700
     82 H331        -5.7690     2.6020    -1.5880 hc         1 6K9       0.062700
     83 H341        -7.2640     3.0880     1.0360 h1         1 6K9       0.019700
     84 H351        -7.7510     4.8270    -0.7040 h1         1 6K9       0.030200
     85 H352        -8.2010     3.5590    -1.8610 h1         1 6K9       0.030200
     86 H361         2.1570    -3.6330    -4.5680 ha         1 6K9       0.168000
     87 H362         0.6250    -4.2800    -3.7470 ha         1 6K9       0.168000
     88 H371        -4.1040    -3.5320     4.3130 hc         1 6K9       0.036700
     89 H373        -5.3690    -4.6480     3.7540 hc         1 6K9       0.036700
     90 H372        -3.7700    -5.2620     4.1680 hc         1 6K9       0.036700
     91 H042        -0.3490     2.3610    -0.0860 hc         1 6K9       0.053200
     92 H041         0.5330     0.9190     0.4200 hc         1 6K9       0.053200
     93 H031         1.2410     2.7430    -1.9760 h1         1 6K9       0.046700
     94 H052         1.5780     3.8170     0.4970 hc         1 6K9       0.055700
     95 H051         1.1710     2.8060     1.8870 hc         1 6K9       0.055700
     96 H022         0.9170     0.7680    -3.3650 hc         1 6K9       0.079200
     97 H021         0.6810    -0.2550    -1.9160 hc         1 6K9       0.079200
     98 H391        -1.2910    -0.1580    -0.6040 hc         1 6K9       0.077200
     99 H392        -1.9740    -0.8670    -1.9910 hc         1 6K9       0.077200
    100 H381        -5.9030    -2.4870     3.0400 ha         1 6K9       0.173000
    101 H382        -6.0140    -1.5100     1.5000 ha         1 6K9       0.173000
    102 H353        -9.5790     4.1720     0.6880 hn         1 6K9       0.387500
    103 H354       -10.0780     4.6430    -0.7750 hn         1 6K9       0.387500
    104 H342        -6.9260     0.9160    -0.0790 ho         1 6K9       0.458000
    105 H061         2.9310     1.1880     1.2790 h1         1 6K9       0.079700
    106 H071         3.5260     3.0900    -1.0560 h1         1 6K9       0.041700
    107 H081         5.2640     1.4780    -1.6570 h1         1 6K9       0.083700
    108 H091         5.8790     3.4330    -0.4320 h1         1 6K9       0.094700
    109 H413        -1.7730     4.2280     0.2240 h1         1 6K9       0.029033
    110 H412        -2.5330     5.1340    -1.1010 h1         1 6K9       0.029033
    111 H411        -3.5020     4.6230     0.2990 h1         1 6K9       0.029033
@<TRIPOS>BOND
     1     1     2 1   
     2     1     3 1   
     3     1    51 1   
     4     1    53 1   
     5     2    46 1   
     6     3     4 1   
     7     3     5 1   
     8     3    54 1   
     9     4     8 1   
    10     5     6 1   
    11     5     7 1   
    12     5    55 1   
    13     6    51 1   
    14     7     8 1   
    15     7    56 1   
    16     7    57 1   
    17     8     9 1   
    18     8    50 1   
    19     9    10 1   
    20     9    58 1   
    21     9    59 1   
    22    10    11 1   
    23    10    60 1   
    24    10    61 1   
    25    11    12 1   
    26    11    45 1   
    27    11    62 1   
    28    12    13 1   
    29    12    63 1   
    30    12    64 1   
    31    13    14 1   
    32    13    30 2   
    33    14    15 1   
    34    14    45 1   
    35    14    65 1   
    36    15    16 1   
    37    15    66 1   
    38    15    67 1   
    39    16    17 1   
    40    16    68 1   
    41    16    69 1   
    42    17    18 1   
    43    17    44 1   
    44    17    70 1   
    45    18    19 1   
    46    18    71 1   
    47    18    72 1   
    48    19    20 1   
    49    19    31 1   
    50    19    73 1   
    51    20    21 1   
    52    20    40 2   
    53    21    22 1   
    54    21    44 1   
    55    21    74 1   
    56    22    23 1   
    57    22    75 1   
    58    22    76 1   
    59    23    24 1   
    60    23    39 1   
    61    23    77 1   
    62    24    25 1   
    63    24    37 1   
    64    24    78 1   
    65    25    26 1   
    66    25    42 1   
    67    25    79 1   
    68    26    27 1   
    69    26    39 1   
    70    26    80 1   
    71    27    28 1   
    72    27    81 1   
    73    27    82 1   
    74    28    29 1   
    75    28    43 1   
    76    28    83 1   
    77    29    41 1   
    78    29    84 1   
    79    29    85 1   
    80    30    86 1   
    81    30    87 1   
    82    31    88 1   
    83    31    89 1   
    84    31    90 1   
    85    32    33 1   
    86    32    34 1   
    87    32    91 1   
    88    32    92 1   
    89    33    35 1   
    90    33    48 1   
    91    33    93 1   
    92    34    46 1   
    93    34    94 1   
    94    34    95 1   
    95    35    36 1   
    96    35    96 1   
    97    35    97 1   
    98    36    37 1   
    99    36    38 2   
   100    37    98 1   
   101    37    99 1   
   102    40   100 1   
   103    40   101 1   
   104    41   102 1   
   105    41   103 1   
   106    42    52 1   
   107    43   104 1   
   108    46    47 1   
   109    46   105 1   
   110    47    48 1   
   111    47    49 1   
   112    47   106 1   
   113    49    50 1   
   114    49    51 1   
   115    49   107 1   
   116    51   108 1   
   117    52   109 1   
   118    52   110 1   
   119    52   111 1   
@<TRIPOS>SUBSTRUCTURE
     1 6K9         1 TEMP              0 ****  ****    0 ROOT
