@<TRIPOS>MOLECULE
6K9
  111   119     1     0     0
SMALL
abcg2


@<TRIPOS>ATOM
      1 C10          5.4280     2.7920     1.6100 c5         1 6K9       0.132300
      2 O10          4.0670     3.1270     1.6450 os         1 6K9      -0.432000
      3 C11          5.8720     1.5840     2.4420 c5         1 6K9       0.098300
      4 O11          4.9490     0.5190     2.3180 os         1 6K9      -0.457000
      5 C12          7.1600     1.1190     1.7240 c5         1 6K9       0.122300
      6 O12          7.2530     1.8890     0.5280 os         1 6K9      -0.429000
      7 C13          6.8720    -0.3410     1.4200 c5         1 6K9      -0.155400
      8 C14          5.3500    -0.3390     1.2780 c5         1 6K9       0.404000
      9 C15          4.6550    -1.6780     1.4910 c3         1 6K9      -0.047400
     10 C16          4.7200    -2.6320     0.2940 c3         1 6K9      -0.061400
     11 C17          3.5250    -2.5520    -0.6450 c5         1 6K9       0.166300
     12 C18          3.7080    -3.3480    -1.9330 c5         1 6K9      -0.075200
     13 C19          2.3040    -3.7560    -2.2490 c2         1 6K9      -0.149400
     14 C20          1.6210    -3.9200    -0.9150 c5         1 6K9       0.201500
     15 C21          0.1450    -3.5620    -0.8950 c3         1 6K9      -0.070400
     16 C22         -0.4720    -3.6740     0.4970 c3         1 6K9      -0.064400
     17 C23         -1.9800    -3.8460     0.4980 c6         1 6K9       0.172300
     18 C24         -2.5390    -4.0100     1.9010 c6         1 6K9      -0.104400
     19 C25         -4.0660    -4.1180     1.8810 c6         1 6K9      -0.024500
     20 C26         -4.6300    -2.9630     1.0880 c2         1 6K9      -0.156400
     21 C27         -3.9820    -2.8230    -0.2740 c6         1 6K9       0.212500
     22 C28         -4.4360    -1.6550    -1.1370 c3         1 6K9      -0.063400
     23 C29         -4.0650    -0.2670    -0.6140 c5         1 6K9       0.170300
     24 C30         -3.1780     0.5810    -1.5370 c5         1 6K9      -0.089700
     25 C31         -3.5590     2.0320    -1.1830 c5         1 6K9       0.153300
     26 C32         -4.7370     1.8470    -0.1970 c5         1 6K9       0.137300
     27 C33         -5.8690     2.8500    -0.2760 c3         1 6K9      -0.113400
     28 C34         -6.9940     2.5780     0.7240 c3         1 6K9       0.184300
     29 C35         -7.9760     3.7400     0.7410 c3         1 6K9       0.150800
     30 C36          1.7580    -3.8940    -3.4490 c2         1 6K9      -0.300000
     31 C37         -4.6270    -4.2740     3.2850 c3         1 6K9      -0.084100
     32 C04          0.8940     2.1480    -0.0220 c6         1 6K9      -0.115400
     33 C03          1.4940     1.7450    -1.3680 c6         1 6K9       0.183300
     34 C05          1.8310     3.0500     0.7760 c6         1 6K9      -0.072400
     35 C02          0.7180     0.6070    -2.0260 c3         1 6K9      -0.188400
     36 C01         -0.7370     0.9640    -2.2420 c          1 6K9       0.571100
     37 C39         -1.7150     0.2300    -1.3710 c3         1 6K9      -0.178400
     38 O01         -1.0630     1.7910    -3.0620 o          1 6K9      -0.513100
     39 O32         -5.2230     0.5380    -0.4580 os         1 6K9      -0.466000
     40 C38         -5.6080    -2.1780     1.5300 c2         1 6K9      -0.294000
     41 N35         -9.0030     3.5630     1.7540 n8         1 6K9      -0.975200
     42 O31         -3.9080     2.7340    -2.3490 os         1 6K9      -0.432000
     43 O34         -7.7090     1.3970     0.4250 oh         1 6K9      -0.646000
     44 O27         -2.5730    -2.7310    -0.1400 os         1 6K9      -0.469000
     45 O20          2.3730    -3.1200    -0.0130 os         1 6K9      -0.474000
     46 C06          3.1650     2.3400     0.8840 c6         1 6K9       0.134300
     47 C07          3.6910     2.0880    -0.5250 c6         1 6K9       0.124300
     48 O07          2.8140     1.2570    -1.2370 os         1 6K9      -0.439000
     49 C08          5.0630     1.4290    -0.4930 c6         1 6K9       0.178300
     50 O14          4.9450     0.1140     0.0110 os         1 6K9      -0.479000
     51 C09          5.9810     2.4080     0.2380 c5         1 6K9       0.095300
     52 C40         -3.5350     4.0890    -2.3510 c3         1 6K9       0.149900
     53 H101         5.9660     3.6750     1.9670 h1         1 6K9       0.090700
     54 H111         6.0030     1.8110     3.5010 h1         1 6K9       0.097700
     55 H121         8.0720     1.2720     2.3000 h1         1 6K9       0.091700
     56 H131         7.4000    -0.7020     0.5380 hc         1 6K9       0.077200
     57 H132         7.1640    -0.9630     2.2690 hc         1 6K9       0.077200
     58 H151         5.1020    -2.1490     2.3690 hc         1 6K9       0.065700
     59 H152         3.6090    -1.4870     1.7470 hc         1 6K9       0.065700
     60 H161         5.6310    -2.4620    -0.2870 hc         1 6K9       0.046700
     61 H162         4.7910    -3.6620     0.6550 hc         1 6K9       0.046700
     62 H171         3.3090    -1.5060    -0.8860 h1         1 6K9       0.081700
     63 H181         4.1810    -2.7670    -2.7250 hc         1 6K9       0.061200
     64 H182         4.3310    -4.2320    -1.7530 hc         1 6K9       0.061200
     65 H201         1.7100    -4.9730    -0.6010 h1         1 6K9       0.048700
     66 H211         0.0010    -2.5580    -1.3020 hc         1 6K9       0.047200
     67 H212        -0.3660    -4.2490    -1.5760 hc         1 6K9       0.047200
     68 H222        -0.0560    -4.5470     1.0100 hc         1 6K9       0.054700
     69 H221        -0.2010    -2.8040     1.1020 hc         1 6K9       0.054700
     70 H231        -2.2260    -4.7560    -0.0770 h1         1 6K9       0.026700
     71 H242        -2.1130    -4.9070     2.3590 hc         1 6K9       0.051700
     72 H241        -2.2380    -3.1570     2.5190 hc         1 6K9       0.051700
     73 HBN         -4.3130    -5.0320     1.3210 hc         1 6K9       0.047700
     74 H271        -4.2260    -3.7430    -0.8330 h1         1 6K9       0.037700
     75 H282        -4.0130    -1.8030    -2.1340 hc         1 6K9       0.065200
     76 H281        -5.5190    -1.7210    -1.2670 hc         1 6K9       0.065200
     77 H291        -3.5700    -0.3580     0.3650 h1         1 6K9       0.052700
     78 H301        -3.4870     0.4040    -2.5720 hc         1 6K9       0.090700
     79 H311        -2.7380     2.5410    -0.6610 h1         1 6K9       0.041700
     80 H321        -4.3190     1.8670     0.8230 h1         1 6K9       0.034700
     81 H332        -5.4540     3.8370    -0.0590 hc         1 6K9       0.062700
     82 H331        -6.2770     2.8900    -1.2900 hc         1 6K9       0.062700
     83 H341        -6.5380     2.5070     1.7280 h1         1 6K9       0.019700
     84 H351        -7.3960     4.6660     0.8600 h1         1 6K9       0.030200
     85 H352        -8.4590     3.8030    -0.2380 h1         1 6K9       0.030200
     86 H361         2.3380    -3.7400    -4.3510 ha         1 6K9       0.168000
     87 H362         0.7190    -4.1680    -3.5830 ha         1 6K9       0.168000
     88 H371        -4.4320    -3.3920     3.8980 hc         1 6K9       0.036700
     89 H373        -5.7050    -4.4440     3.2780 hc         1 6K9       0.036700
     90 H372        -4.1660    -5.1310     3.7790 hc         1 6K9       0.036700
     91 H042        -0.0590     2.6560    -0.1880 hc         1 6K9       0.053200
     92 H041         0.6760     1.2470     0.5620 hc         1 6K9       0.053200
     93 H031         1.4900     2.6250    -2.0290 h1         1 6K9       0.046700
     94 H052         1.9540     4.0160     0.2750 hc         1 6K9       0.055700
     95 H051         1.4090     3.2450     1.7640 hc         1 6K9       0.055700
     96 H022         1.1690     0.3670    -2.9920 hc         1 6K9       0.079200
     97 H021         0.8040    -0.2780    -1.3900 hc         1 6K9       0.079200
     98 H391        -1.4030     0.3710    -0.3280 hc         1 6K9       0.077200
     99 H392        -1.5590    -0.8400    -1.5470 hc         1 6K9       0.077200
    100 H381        -6.0580    -2.3220     2.5040 ha         1 6K9       0.173000
    101 H382        -6.0060    -1.3600     0.9480 ha         1 6K9       0.173000
    102 H353        -8.5890     3.6690     2.6720 hn         1 6K9       0.387500
    103 H354        -9.6800     4.3110     1.6750 hn         1 6K9       0.387500
    104 H342        -7.0600     0.7250     0.1840 ho         1 6K9       0.458000
    105 H061         2.9890     1.3740     1.3670 h1         1 6K9       0.079700
    106 H071         3.7970     3.0620    -1.0340 h1         1 6K9       0.041700
    107 H081         5.4300     1.3200    -1.5200 h1         1 6K9       0.083700
    108 H091         6.1040     3.2780    -0.4110 h1         1 6K9       0.094700
    109 H413        -2.4550     4.2130    -2.2130 h1         1 6K9       0.029033
    110 H412        -3.8040     4.5030    -3.3220 h1         1 6K9       0.029033
    111 H411        -4.0460     4.6750    -1.5800 h1         1 6K9       0.029033
@<TRIPOS>BOND
     1     1     2 1   
     2     1     3 1   
     3     1    51 1   
     4     1    53 1   
     5     2    46 1   
     6     3     4 1   
     7     3     5 1   
     8     3    54 1   
     9     4     8 1   
    10     5     6 1   
    11     5     7 1   
    12     5    55 1   
    13     6    51 1   
    14     7     8 1   
    15     7    56 1   
    16     7    57 1   
    17     8     9 1   
    18     8    50 1   
    19     9    10 1   
    20     9    58 1   
    21     9    59 1   
    22    10    11 1   
    23    10    60 1   
    24    10    61 1   
    25    11    12 1   
    26    11    45 1   
    27    11    62 1   
    28    12    13 1   
    29    12    63 1   
    30    12    64 1   
    31    13    14 1   
    32    13    30 2   
    33    14    15 1   
    34    14    45 1   
    35    14    65 1   
    36    15    16 1   
    37    15    66 1   
    38    15    67 1   
    39    16    17 1   
    40    16    68 1   
    41    16    69 1   
    42    17    18 1   
    43    17    44 1   
    44    17    70 1   
    45    18    19 1   
    46    18    71 1   
    47    18    72 1   
    48    19    20 1   
    49    19    31 1   
    50    19    73 1   
    51    20    21 1   
    52    20    40 2   
    53    21    22 1   
    54    21    44 1   
    55    21    74 1   
    56    22    23 1   
    57    22    75 1   
    58    22    76 1   
    59    23    24 1   
    60    23    39 1   
    61    23    77 1   
    62    24    25 1   
    63    24    37 1   
    64    24    78 1   
    65    25    26 1   
    66    25    42 1   
    67    25    79 1   
    68    26    27 1   
    69    26    39 1   
    70    26    80 1   
    71    27    28 1   
    72    27    81 1   
    73    27    82 1   
    74    28    29 1   
    75    28    43 1   
    76    28    83 1   
    77    29    41 1   
    78    29    84 1   
    79    29    85 1   
    80    30    86 1   
    81    30    87 1   
    82    31    88 1   
    83    31    89 1   
    84    31    90 1   
    85    32    33 1   
    86    32    34 1   
    87    32    91 1   
    88    32    92 1   
    89    33    35 1   
    90    33    48 1   
    91    33    93 1   
    92    34    46 1   
    93    34    94 1   
    94    34    95 1   
    95    35    36 1   
    96    35    96 1   
    97    35    97 1   
    98    36    37 1   
    99    36    38 2   
   100    37    98 1   
   101    37    99 1   
   102    40   100 1   
   103    40   101 1   
   104    41   102 1   
   105    41   103 1   
   106    42    52 1   
   107    43   104 1   
   108    46    47 1   
   109    46   105 1   
   110    47    48 1   
   111    47    49 1   
   112    47   106 1   
   113    49    50 1   
   114    49    51 1   
   115    49   107 1   
   116    51   108 1   
   117    52   109 1   
   118    52   110 1   
   119    52   111 1   
@<TRIPOS>SUBSTRUCTURE
     1 6K9         1 TEMP              0 ****  ****    0 ROOT
