@<TRIPOS>MOLECULE
6KA
   45    48     1     0     0
SMALL
No Charge or Current Charge


@<TRIPOS>ATOM
      1 C1         -34.2200   -45.2030    44.4980 ca         1 6KA       0.179000
      2 C2         -32.9700   -45.3490    45.1420 ca         1 6KA      -0.141300
      3 C3         -32.3350   -44.1980    45.6530 ca         1 6KA       0.189000
      4 C4         -32.9300   -42.9330    45.5340 ca         1 6KA      -0.148000
      5 C5         -34.1730   -42.7980    44.8970 ca         1 6KA      -0.063000
      6 C6         -34.8150   -43.9350    44.3800 ca         1 6KA      -0.117000
      7 C9         -32.2910   -46.7140    45.2750 c3         1 6KA       0.155900
      8 C11        -29.9760   -46.6880    44.1820 cc         1 6KA      -0.119000
      9 C12        -29.5550   -47.1260    42.9580 cd         1 6KA      -0.257000
     10 C13        -30.6760   -47.6580    42.3130 cd         1 6KA       0.503900
     11 C16        -31.5790   -48.6970    40.2380 cc         1 6KA       0.666300
     12 C18        -33.4020   -49.5300    38.9760 cc         1 6KA       0.339700
     13 C21        -34.7460   -49.9820    38.4460 c3         1 6KA       0.090000
     14 C22        -34.6650   -50.9030    37.2030 c3         1 6KA      -0.089100
     15 C25        -36.3520   -47.0040    37.4340 cc         1 6KA       0.253300
     16 C26        -37.3310   -47.4530    38.3280 cc         1 6KA      -0.235000
     17 F8         -31.1350   -44.2990    46.2690 f          1 6KA      -0.181000
     18 Cl7        -35.0800   -46.5880    43.8220 cl         1 6KA      -0.191000
     19 N10        -31.3380   -46.9930    44.1850 na         1 6KA       0.120800
     20 N14        -31.7710   -47.6010    43.0200 nc         1 6KA      -0.570800
     21 N20        -31.1960   -49.1100    39.0450 nd         1 6KA      -0.422000
     22 N19        -32.2570   -49.5990    38.3040 nd         1 6KA      -0.287000
     23 S17        -33.2730   -48.8740    40.5810 ss         1 6KA      -0.189800
     24 N23        -35.6510   -48.8370    38.2240 na         1 6KA       0.098800
     25 C27        -36.8900   -48.6330    38.8420 cd         1 6KA      -0.154000
     26 N24        -35.3180   -47.8130    37.3420 nd         1 6KA      -0.508800
     27 H1         -32.4250   -42.0580    45.9360 ha         1 6KA       0.140000
     28 H2         -34.6370   -41.8170    44.8030 ha         1 6KA       0.126000
     29 H3         -35.7770   -43.8350    43.8840 ha         1 6KA       0.141000
     30 H4         -33.0360   -47.5160    45.3060 h1         1 6KA       0.077200
     31 H5         -31.7460   -46.7620    46.2260 h1         1 6KA       0.077200
     32 H6         -29.4610   -46.2090    45.0070 h4         1 6KA       0.159000
     33 H7         -28.5480   -47.0680    42.5630 ha         1 6KA       0.153000
     34 H8         -35.1980   -50.5830    39.2450 h1         1 6KA       0.068700
     35 H9         -34.0500   -51.7860    37.4150 hc         1 6KA       0.059367
     36 H10        -35.6650   -51.2480    36.9150 hc         1 6KA       0.059367
     37 H11        -34.2270   -50.3740    36.3480 hc         1 6KA       0.059367
     38 H12        -38.2600   -46.9400    38.5540 ha         1 6KA       0.140000
     39 H14        -37.3270   -49.3160    39.5620 h4         1 6KA       0.152000
     40 H15        -35.6010   -45.5380    36.0400 hc         1 6KA       0.045367
     41 H16        -37.3610   -45.7520    36.0090 hc         1 6KA       0.045367
     42 H17        -36.5980   -44.8710    37.3470 hc         1 6KA       0.045367
     43 N15        -30.6310   -48.1810    41.0690 nu         1 6KA      -0.875800
     44 C28        -36.4830   -45.7210    36.6640 c3         1 6KA      -0.117400
     45 H13        -29.7130   -48.1700    40.6410 hn         1 6KA       0.523000
@<TRIPOS>BOND
     1     1     2 ar  
     2     1     6 ar  
     3     1    18 1   
     4     2     3 ar  
     5     2     7 1   
     6     3     4 ar  
     7     3    17 1   
     8     4     5 ar  
     9     4    27 1   
    10     5     6 ar  
    11     5    28 1   
    12     6    29 1   
    13     7    19 1   
    14     7    30 1   
    15     7    31 1   
    16     8     9 2   
    17     8    19 1   
    18     8    32 1   
    19     9    10 1   
    20     9    33 1   
    21    10    20 2   
    22    10    43 1   
    23    11    21 2   
    24    11    23 1   
    25    11    43 1   
    26    12    13 1   
    27    12    22 2   
    28    12    23 1   
    29    13    14 1   
    30    13    24 1   
    31    13    34 1   
    32    14    35 1   
    33    14    36 1   
    34    14    37 1   
    35    15    16 1   
    36    15    26 2   
    37    15    44 1   
    38    16    25 2   
    39    16    38 1   
    40    19    20 1   
    41    21    22 1   
    42    24    25 1   
    43    24    26 1   
    44    25    39 1   
    45    40    44 1   
    46    41    44 1   
    47    42    44 1   
    48    43    45 1   
@<TRIPOS>SUBSTRUCTURE
     1 6KA         1 TEMP              0 ****  ****    0 ROOT
