@<TRIPOS>MOLECULE
6KA
   45    48     1     0     0
SMALL
abcg2


@<TRIPOS>ATOM
      1 C1         -34.6840   -46.0630    43.5010 ca         1 6KA       0.179000
      2 C2         -33.4890   -45.7560    44.1550 ca         1 6KA      -0.141300
      3 C3         -33.0140   -44.4600    43.9720 ca         1 6KA       0.189000
      4 C4         -33.6540   -43.5020    43.2140 ca         1 6KA      -0.148000
      5 C5         -34.8430   -43.8520    42.5860 ca         1 6KA      -0.063000
      6 C6         -35.3620   -45.1320    42.7240 ca         1 6KA      -0.117000
      7 C9         -32.7010   -46.7330    44.9880 c3         1 6KA       0.155900
      8 C11        -30.2440   -47.1740    44.5940 cc         1 6KA      -0.119000
      9 C12        -29.5250   -47.7580    43.5700 cd         1 6KA      -0.257000
     10 C13        -30.5130   -48.1480    42.6400 cd         1 6KA       0.503900
     11 C16        -31.2620   -49.0230    40.4810 cc         1 6KA       0.666300
     12 C18        -33.1580   -49.3300    39.0670 cc         1 6KA       0.339700
     13 C21        -34.5230   -49.4500    38.4380 c3         1 6KA       0.090000
     14 C22        -34.4710   -49.6150    36.9240 c3         1 6KA      -0.089100
     15 C25        -35.9470   -46.2670    38.9970 cc         1 6KA       0.253300
     16 C26        -36.8350   -47.0220    39.7980 cc         1 6KA      -0.235000
     17 F8         -31.8470   -44.1290    44.5760 f          1 6KA      -0.181000
     18 CL7        -35.3750   -47.6640    43.6370 cl         1 6KA      -0.191000
     19 N10        -31.5490   -47.2420    44.2610 na         1 6KA       0.120800
     20 N14        -31.7350   -47.8400    43.0600 nc         1 6KA      -0.570800
     21 N20        -30.9540   -49.5510    39.3180 nd         1 6KA      -0.422000
     22 N19        -32.0540   -49.7170    38.5190 nd         1 6KA      -0.287000
     23 S17        -32.9610   -48.6880    40.6810 ss         1 6KA      -0.189800
     24 N23        -35.3500   -48.3150    38.8340 na         1 6KA       0.098800
     25 C27        -36.4160   -48.3270    39.6680 cd         1 6KA      -0.154000
     26 N24        -35.0470   -47.0630    38.4190 nd         1 6KA      -0.508800
     27 H1         -33.2260   -42.5130    43.1220 ha         1 6KA       0.140000
     28 H2         -35.3680   -43.1240    41.9830 ha         1 6KA       0.126000
     29 H3         -36.2800   -45.4130    42.2300 ha         1 6KA       0.141000
     30 H4         -33.3310   -47.5670    45.2900 h1         1 6KA       0.077200
     31 H5         -32.3200   -46.2500    45.8850 h1         1 6KA       0.077200
     32 H6         -29.9230   -46.7200    45.5170 h4         1 6KA       0.159000
     33 H7         -28.4580   -47.8790    43.4960 ha         1 6KA       0.153000
     34 H8         -35.0170   -50.3210    38.8750 h1         1 6KA       0.068700
     35 H9         -33.9040   -50.5090    36.6680 hc         1 6KA       0.059367
     36 H10        -35.4850   -49.7150    36.5390 hc         1 6KA       0.059367
     37 H11        -33.9940   -48.7540    36.4580 hc         1 6KA       0.059367
     38 H12        -37.6620   -46.6600    40.3860 ha         1 6KA       0.140000
     39 H14        -36.7790   -49.2460    40.0980 h4         1 6KA       0.152000
     40 H15        -35.1050   -44.5190    38.1140 hc         1 6KA       0.045367
     41 H16        -36.8650   -44.4600    38.2990 hc         1 6KA       0.045367
     42 H17        -35.8300   -44.2500    39.7060 hc         1 6KA       0.045367
     43 N15        -30.3130   -48.7670    41.4190 nu         1 6KA      -0.875800
     44 C28        -35.9350   -44.7930    38.7650 c3         1 6KA      -0.117400
     45 H13        -29.3630   -48.9860    41.1540 hn         1 6KA       0.523000
@<TRIPOS>BOND
     1     1     2 ar  
     2     1     6 ar  
     3     1    18 1   
     4     2     3 ar  
     5     2     7 1   
     6     3     4 ar  
     7     3    17 1   
     8     4     5 ar  
     9     4    27 1   
    10     5     6 ar  
    11     5    28 1   
    12     6    29 1   
    13     7    19 1   
    14     7    30 1   
    15     7    31 1   
    16     8     9 2   
    17     8    19 1   
    18     8    32 1   
    19     9    10 1   
    20     9    33 1   
    21    10    20 2   
    22    10    43 1   
    23    11    21 2   
    24    11    23 1   
    25    11    43 1   
    26    12    13 1   
    27    12    22 2   
    28    12    23 1   
    29    13    14 1   
    30    13    24 1   
    31    13    34 1   
    32    14    35 1   
    33    14    36 1   
    34    14    37 1   
    35    15    16 1   
    36    15    26 2   
    37    15    44 1   
    38    16    25 2   
    39    16    38 1   
    40    19    20 1   
    41    21    22 1   
    42    24    25 1   
    43    24    26 1   
    44    25    39 1   
    45    40    44 1   
    46    41    44 1   
    47    42    44 1   
    48    43    45 1   
@<TRIPOS>SUBSTRUCTURE
     1 6KA         1 TEMP              0 ****  ****    0 ROOT
