@<TRIPOS>MOLECULE
6KE
   48    50     1     0     0
SMALL
No Charge or Current Charge


@<TRIPOS>ATOM
      1 C1          -6.2110    -0.5450    -0.4280 ca         1 6KE      -0.302500
      2 C2          -5.1560    -1.3640    -0.8750 ca         1 6KE       0.022000
      3 C3          -3.8260    -1.0100    -0.5900 ca         1 6KE      -0.174000
      4 C4          -3.5270     0.1560     0.1400 ca         1 6KE       0.031000
      5 C5          -4.5910     0.9720     0.5820 ca         1 6KE      -0.174000
      6 C6          -5.9240     0.6240     0.3010 ca         1 6KE       0.022000
      7 O1          -8.7600     0.2080    -0.7820 o          1 6KE      -0.543500
      8 C7          -1.5210     1.4690     1.0720 c          1 6KE       0.619100
      9 C10          2.4080     2.3610    -0.1970 cc         1 6KE       0.522800
     10 C11          4.5890     3.0210    -0.8920 c          1 6KE       0.577200
     11 C12          4.9220     1.5980    -0.7730 cc         1 6KE      -0.172900
     12 C13          3.9810     0.6420    -0.3830 cd         1 6KE       0.316400
     13 C8           0.0180     1.3720     1.0720 c3         1 6KE      -0.030700
     14 C9           0.5900     1.2830     2.5100 c3         1 6KE      -0.084100
     15 O3          -2.1090     2.3830     1.6410 o          1 6KE      -0.550100
     16 C14          6.2430     1.2960    -1.2000 cg         1 6KE       0.306700
     17 O2          -7.9580    -1.9930    -1.8390 o          1 6KE      -0.543500
     18 C16          3.1490    -1.7260    -0.1910 ca         1 6KE      -0.060500
     19 C17          3.3300    -3.0950     0.0690 ca         1 6KE      -0.112000
     20 C18          4.5960    -3.5820     0.4160 ca         1 6KE       0.138000
     21 C19          5.6760    -2.6970     0.5200 ca         1 6KE      -0.112000
     22 C20          5.4980    -1.3260     0.2590 ca         1 6KE      -0.060500
     23 C15          4.2340    -0.8130    -0.1380 ca         1 6KE      -0.075800
     24 N4           2.6750     1.0690    -0.0930 nd         1 6KE      -0.693300
     25 N5           7.3170     1.0390    -1.5760 n1         1 6KE      -0.440000
     26 O4           5.3490     3.9130    -1.2410 o          1 6KE      -0.505000
     27 N3           3.3120     3.2900    -0.5770 ns         1 6KE      -0.393400
     28 S2           0.7450     2.8290     0.1640 ss         1 6KE      -0.145200
     29 N2          -2.1560     0.4420     0.3840 ns         1 6KE      -0.138000
     30 S1          -7.9110    -0.9830    -0.7840 sy         1 6KE       1.130600
     31 N1          -8.3270    -1.8070     0.5650 n8         1 6KE      -1.001100
     32 H1          -5.3560    -2.2720    -1.4430 ha         1 6KE       0.140500
     33 H2          -3.0220    -1.6520    -0.9420 ha         1 6KE       0.135000
     34 H3          -4.4130     1.8810     1.1450 ha         1 6KE       0.135000
     35 H4          -6.7300     1.2680     0.6540 ha         1 6KE       0.140500
     36 H5           0.2830     0.4560     0.5290 h1         1 6KE       0.108700
     37 H6           1.6780     1.1590     2.4960 hc         1 6KE       0.059033
     38 H7           0.3580     2.1920     3.0790 hc         1 6KE       0.059033
     39 H8           0.1600     0.4270     3.0440 hc         1 6KE       0.059033
     40 H9           2.1530    -1.3840    -0.4630 ha         1 6KE       0.128500
     41 H10          2.4870    -3.7790     0.0030 ha         1 6KE       0.135000
     42 H11          6.6520    -3.0700     0.8200 ha         1 6KE       0.135000
     43 H12          6.3500    -0.6760     0.4190 ha         1 6KE       0.128500
     44 H13          3.0280     4.2560    -0.6430 hn         1 6KE       0.349500
     45 H14         -1.5250    -0.2340    -0.0250 hn         1 6KE       0.159000
     46 H15         -8.6940    -2.6660     0.1610 hn         1 6KE       0.472000
     47 H16         -7.4210    -2.0800     0.9380 hn         1 6KE       0.472000
     48 Cl           4.8230    -5.2940     0.7480 cl         1 6KE      -0.189000
@<TRIPOS>BOND
     1     1     2 ar  
     2     1     6 ar  
     3     1    30 1   
     4     2     3 ar  
     5     2    32 1   
     6     3     4 ar  
     7     3    33 1   
     8     4     5 ar  
     9     4    29 1   
    10     5     6 ar  
    11     5    34 1   
    12     6    35 1   
    13     7    30 2   
    14     8    13 1   
    15     8    15 2   
    16     8    29 1   
    17     9    24 2   
    18     9    27 1   
    19     9    28 1   
    20    10    11 1   
    21    10    26 2   
    22    10    27 1   
    23    11    12 2   
    24    11    16 1   
    25    12    23 1   
    26    12    24 1   
    27    13    14 1   
    28    13    28 1   
    29    13    36 1   
    30    14    37 1   
    31    14    38 1   
    32    14    39 1   
    33    16    25 3   
    34    17    30 2   
    35    18    19 ar  
    36    18    23 ar  
    37    18    40 1   
    38    19    20 ar  
    39    19    41 1   
    40    20    21 ar  
    41    20    48 1   
    42    21    22 ar  
    43    21    42 1   
    44    22    23 ar  
    45    22    43 1   
    46    27    44 1   
    47    29    45 1   
    48    30    31 1   
    49    31    46 1   
    50    31    47 1   
@<TRIPOS>SUBSTRUCTURE
     1 6KE         1 TEMP              0 ****  ****    0 ROOT
