@<TRIPOS>MOLECULE
6KE
   48    50     1     0     0
SMALL
bcc


@<TRIPOS>ATOM
      1 C1          -6.2170    -0.6430    -0.2840 ca         1 6KE      -0.302500
      2 C2          -5.2650    -1.6470    -0.3830 ca         1 6KE       0.004000
      3 C3          -3.9310    -1.3310    -0.2190 ca         1 6KE      -0.192000
      4 C4          -3.5330    -0.0170     0.0390 ca         1 6KE       0.123600
      5 C5          -4.5010     0.9880     0.1330 ca         1 6KE      -0.192000
      6 C6          -5.8370     0.6660    -0.0270 ca         1 6KE       0.004000
      7 O1          -8.5940     0.0910    -1.1620 o          1 6KE      -0.614300
      8 C7          -1.5010     1.3530     0.4380 c          1 6KE       0.686100
      9 C10          2.3910     2.2850     0.0080 cc         1 6KE       0.522800
     10 C11          4.5930     3.1060    -0.5110 c          1 6KE       0.719700
     11 C12          4.9800     1.7120    -0.4830 cc         1 6KE      -0.172900
     12 C13          4.0530     0.7390    -0.1730 cd         1 6KE       0.316400
     13 C8          -0.0130     1.1490     0.6650 c3         1 6KE      -0.078600
     14 C9           0.2580     0.7440     2.1100 c3         1 6KE      -0.084100
     15 O3          -2.0090     2.4530     0.5170 o          1 6KE      -0.550100
     16 C14          6.3210     1.4410    -0.8440 cg         1 6KE       0.217500
     17 O2          -8.0210    -2.3420    -1.1010 o          1 6KE      -0.614300
     18 C16          3.4750    -1.6310    -0.5660 ca         1 6KE      -0.078500
     19 C17          3.7500    -2.9840    -0.4900 ca         1 6KE      -0.130000
     20 C18          4.9310    -3.4010     0.1080 ca         1 6KE       0.046400
     21 C19          5.8340    -2.4870     0.6270 ca         1 6KE      -0.130000
     22 C20          5.5580    -1.1330     0.5290 ca         1 6KE      -0.078500
     23 C15          4.3830    -0.6910    -0.0760 ca         1 6KE      -0.075800
     24 N4           2.7580     1.0400     0.0430 nd         1 6KE      -0.693300
     25 N5           7.4190     1.2560    -1.1460 n1         1 6KE      -0.350800
     26 O4           5.3260     4.0410    -0.7560 o          1 6KE      -0.580500
     27 N3           3.2480     3.2970    -0.2270 ns         1 6KE      -0.460400
     28 S2           0.7380     2.7600     0.2580 ss         1 6KE      -0.097300
     29 N2          -2.1660     0.1980     0.1910 ns         1 6KE      -0.464100
     30 S1          -7.9280    -1.0190    -0.4970 sy         1 6KE       1.272200
     31 N1          -8.4600    -0.9880     1.0680 n8         1 6KE      -0.890700
     32 H1          -5.5470    -2.6710    -0.5870 ha         1 6KE       0.158500
     33 H2          -3.1890    -2.1160    -0.2920 ha         1 6KE       0.153000
     34 H3          -4.2300     2.0110     0.3270 ha         1 6KE       0.153000
     35 H4          -6.5750     1.4530     0.0480 ha         1 6KE       0.158500
     36 H5           0.3950     0.4050    -0.0210 h1         1 6KE       0.108700
     37 H6           1.3270     0.6380     2.2770 hc         1 6KE       0.059033
     38 H7          -0.1360     1.4820     2.8070 hc         1 6KE       0.059033
     39 H8          -0.2070    -0.2180     2.3260 hc         1 6KE       0.059033
     40 H9           2.5520    -1.3040    -1.0240 ha         1 6KE       0.146500
     41 H10          3.0490    -3.7050    -0.8880 ha         1 6KE       0.153000
     42 H11          6.7410    -2.8210     1.1120 ha         1 6KE       0.153000
     43 H12          6.2560    -0.4320     0.9670 ha         1 6KE       0.146500
     44 H13          2.9190     4.2580    -0.2210 hn         1 6KE       0.349500
     45 H14         -1.5960    -0.6310     0.1040 hn         1 6KE       0.325500
     46 H15         -9.4730    -0.9210     1.1130 hn         1 6KE       0.416800
     47 H16         -8.1390    -1.7870     1.6050 hn         1 6KE       0.416800
     48 CL           5.2770    -5.0900     0.2170 cl         1 6KE      -0.097400
@<TRIPOS>BOND
     1     1     2 ar  
     2     1     6 ar  
     3     1    30 1   
     4     2     3 ar  
     5     2    32 1   
     6     3     4 ar  
     7     3    33 1   
     8     4     5 ar  
     9     4    29 1   
    10     5     6 ar  
    11     5    34 1   
    12     6    35 1   
    13     7    30 2   
    14     8    13 1   
    15     8    15 2   
    16     8    29 1   
    17     9    24 2   
    18     9    27 1   
    19     9    28 1   
    20    10    11 1   
    21    10    26 2   
    22    10    27 1   
    23    11    12 2   
    24    11    16 1   
    25    12    23 1   
    26    12    24 1   
    27    13    14 1   
    28    13    28 1   
    29    13    36 1   
    30    14    37 1   
    31    14    38 1   
    32    14    39 1   
    33    16    25 3   
    34    17    30 2   
    35    18    19 ar  
    36    18    23 ar  
    37    18    40 1   
    38    19    20 ar  
    39    19    41 1   
    40    20    21 ar  
    41    20    48 1   
    42    21    22 ar  
    43    21    42 1   
    44    22    23 ar  
    45    22    43 1   
    46    27    44 1   
    47    29    45 1   
    48    30    31 1   
    49    31    46 1   
    50    31    47 1   
@<TRIPOS>SUBSTRUCTURE
     1 6KE         1 TEMP              0 ****  ****    0 ROOT
