@<TRIPOS>MOLECULE
6KF
   94    97     1     0     0
SMALL
No Charge or Current Charge


@<TRIPOS>ATOM
      1 N1           3.0810     3.3070     1.1520 n2         1 6KF      -0.400200
      2 N3           4.5890     4.7380     0.0010 n1         1 6KF      -0.071000
      3 C4           4.1470     1.1060     1.6350 c3         1 6KF      -0.046100
      4 C5           5.5960     1.3950     1.2610 ca         1 6KF      -0.099300
      5 C6           6.1660     0.7760     0.1320 ca         1 6KF      -0.108000
      6 C7           7.5040     1.0270    -0.2150 ca         1 6KF      -0.106500
      7 C8           8.2780     1.9050     0.5620 ca         1 6KF      -0.104000
      8 C10          6.3760     2.2730     2.0380 ca         1 6KF      -0.108000
      9 C13          2.3330    -2.2670     0.9530 ca         1 6KF      -0.107000
     10 C15          2.2200    -1.9240    -1.4470 ca         1 6KF      -0.107000
     11 C17         -3.1930     4.1140    -2.6040 ca         1 6KF      -0.106000
     12 C20         -3.0320     1.3800    -3.2320 ca         1 6KF      -0.100500
     13 C21         -3.8320     1.8020    -2.1510 ca         1 6KF      -0.081300
     14 C22         -3.9090     3.1740    -1.8420 ca         1 6KF      -0.100500
     15 C24          6.7040    -2.6760     0.4540 ca         1 6KF      -0.098000
     16 C26          8.5230    -3.7150    -0.7860 ca         1 6KF      -0.106000
     17 C28          6.2560    -3.7650    -1.6710 ca         1 6KF      -0.098000
     18 C25          8.0660    -3.0040     0.3350 ca         1 6KF      -0.111000
     19 C27          7.6170    -4.0960    -1.7880 ca         1 6KF      -0.111000
     20 C23          5.7710    -3.0500    -0.5470 cp         1 6KF      -0.038000
     21 C11          4.3250    -2.6810    -0.4270 cp         1 6KF      -0.032000
     22 C16          3.5640    -2.3170    -1.5650 ca         1 6KF      -0.103000
     23 C12          3.6760    -2.6630     0.8320 ca         1 6KF      -0.103000
     24 C14          1.6000    -1.8780    -0.1840 ca         1 6KF      -0.079300
     25 C29          0.1680    -1.3600    -0.0380 c3         1 6KF      -0.040100
     26 C30         -0.0290     0.0710    -0.6240 c3         1 6KF       0.050700
     27 C32          1.7180     1.2220     0.8310 c          1 6KF       0.628100
     28 O33          1.1690     0.9230     1.8860 o          1 6KF      -0.553100
     29 C34          3.1250     1.8800     0.7620 c3         1 6KF       0.091500
     30 N2           3.8120     4.0820     0.5120 n1         1 6KF       0.232000
     31 C9           7.7140     2.5280     1.6880 ca         1 6KF      -0.106500
     32 C35         -1.3650     0.7570    -0.1920 c          1 6KF       0.596100
     33 O36         -1.4330     1.9210     0.1830 o          1 6KF      -0.563100
     34 N37         -2.4880    -0.0470    -0.2580 ns         1 6KF      -0.499900
     35 C38         -3.8760     0.4020     0.0070 c3         1 6KF       0.030700
     36 C39         -4.5980     0.7830    -1.3140 c3         1 6KF      -0.051100
     37 C19         -2.3140     2.3200    -3.9920 ca         1 6KF      -0.106000
     38 C18         -2.3950     3.6870    -3.6790 ca         1 6KF      -0.103000
     39 C40         -4.6650    -0.6900     0.7830 c          1 6KF       0.597100
     40 O41         -4.2560    -1.8360     0.9320 o          1 6KF      -0.612100
     41 N42         -5.8760    -0.2770     1.2970 ns         1 6KF      -0.502900
     42 C43         -6.8270    -1.1280     2.0210 c3         1 6KF       0.079700
     43 C44         -6.6230    -0.9760     3.5440 c3         1 6KF      -0.103100
     44 C45         -8.2990    -0.8540     1.5620 c3         1 6KF       0.155300
     45 O46         -8.6440     0.5000     1.9100 oh         1 6KF      -0.654000
     46 C47         -8.5640    -1.0690     0.0310 c3         1 6KF      -0.092700
     47 C48        -10.0520    -0.7880    -0.3350 c3         1 6KF      -0.083100
     48 C49         -8.1260    -2.4820    -0.4530 c3         1 6KF       0.161600
     49 O50         -8.2930    -2.6100    -1.8710 oh         1 6KF      -0.663000
     50 H2           3.9650     0.0320     1.5160 hc         1 6KF       0.070700
     51 H3           3.9620     1.3210     2.6950 hc         1 6KF       0.070700
     52 H4           5.5740     0.0950    -0.4760 ha         1 6KF       0.113500
     53 H5           7.9400     0.5420    -1.0860 ha         1 6KF       0.114500
     54 H6           9.3140     2.1010     0.2930 ha         1 6KF       0.114000
     55 H7           5.9470     2.7600     2.9110 ha         1 6KF       0.113500
     56 H9           1.6700    -1.6310    -2.3380 ha         1 6KF       0.116500
     57 H10         -3.2550     5.1720    -2.3600 ha         1 6KF       0.112000
     58 H11         -2.9600     0.3240    -3.4790 ha         1 6KF       0.107000
     59 H12         -4.5200     3.5130    -1.0090 ha         1 6KF       0.107000
     60 H14          9.5770    -3.9690    -0.8770 ha         1 6KF       0.113000
     61 H15          5.5690    -4.0770    -2.4540 ha         1 6KF       0.114500
     62 H16          8.7660    -2.7020     1.1110 ha         1 6KF       0.113500
     63 H17          7.9690    -4.6480    -2.6570 ha         1 6KF       0.113500
     64 H18          4.0280    -2.3110    -2.5480 ha         1 6KF       0.116500
     65 H19          4.2210    -2.9510     1.7270 ha         1 6KF       0.116500
     66 H20         -0.5240    -2.0550    -0.5290 hc         1 6KF       0.070200
     67 H21         -0.1180    -1.3480     1.0210 hc         1 6KF       0.070200
     68 H22         -0.1140    -0.0490    -1.7120 h1         1 6KF       0.055700
     69 H24          3.4540     1.7850    -0.2820 h1         1 6KF       0.047700
     70 H25          8.3130     3.2080     2.2900 ha         1 6KF       0.114500
     71 H26         -2.3490    -1.0110    -0.5400 hn         1 6KF       0.325500
     72 H27         -3.8460     1.2860     0.6570 h1         1 6KF       0.093700
     73 H28         -5.5950     1.1760    -1.0810 hc         1 6KF       0.058200
     74 H29         -4.7670    -0.1290    -1.9000 hc         1 6KF       0.058200
     75 H30         -1.6960     1.9880    -4.8240 ha         1 6KF       0.112000
     76 H31         -1.8400     4.4140    -4.2680 ha         1 6KF       0.113000
     77 H32         -6.1450     0.6870     1.1330 hn         1 6KF       0.315500
     78 H33         -6.6000    -2.1770     1.7920 h1         1 6KF       0.082700
     79 H34         -6.7840     0.0600     3.8650 hc         1 6KF       0.047367
     80 H35         -7.3200    -1.6200     4.0930 hc         1 6KF       0.047367
     81 H36         -5.6020    -1.2640     3.8240 hc         1 6KF       0.047367
     82 H37         -8.9440    -1.5540     2.1130 h1         1 6KF       0.076700
     83 H38         -9.6070     0.6020     1.7570 ho         1 6KF       0.439000
     84 H39         -7.9550    -0.3390    -0.5180 hc         1 6KF       0.054700
     85 H40        -10.7210    -1.4730     0.2010 hc         1 6KF       0.041700
     86 H41        -10.3420     0.2390    -0.0870 hc         1 6KF       0.041700
     87 H42        -10.2290    -0.9140    -1.4090 hc         1 6KF       0.041700
     88 H43         -7.0710    -2.6500    -0.2050 h1         1 6KF       0.027700
     89 H44         -8.7180    -3.2440     0.0710 h1         1 6KF       0.027700
     90 H45         -8.0150    -3.5220    -2.1120 ho         1 6KF       0.446000
     91 N31          1.1500     0.9450    -0.4000 ns         1 6KF      -0.493900
     92 H8           1.8710    -2.2410     1.9370 ha         1 6KF       0.116500
     93 H13          6.3740    -2.1100     1.3210 ha         1 6KF       0.114500
     94 H23          1.6680     1.2570    -1.2120 hn         1 6KF       0.316500
@<TRIPOS>BOND
     1     1    29 1   
     2     1    30 1   
     3     2    30 3   
     4     3     4 1   
     5     3    29 1   
     6     3    50 1   
     7     3    51 1   
     8     4     5 ar  
     9     4     8 ar  
    10     5     6 ar  
    11     5    52 1   
    12     6     7 ar  
    13     6    53 1   
    14     7    31 ar  
    15     7    54 1   
    16     8    31 ar  
    17     8    55 1   
    18     9    23 ar  
    19     9    24 ar  
    20     9    92 1   
    21    10    22 ar  
    22    10    24 ar  
    23    10    56 1   
    24    11    14 ar  
    25    11    38 ar  
    26    11    57 1   
    27    12    13 ar  
    28    12    37 ar  
    29    12    58 1   
    30    13    14 ar  
    31    13    36 1   
    32    14    59 1   
    33    15    18 ar  
    34    15    20 ar  
    35    15    93 1   
    36    16    18 ar  
    37    16    19 ar  
    38    16    60 1   
    39    17    19 ar  
    40    17    20 ar  
    41    17    61 1   
    42    18    62 1   
    43    19    63 1   
    44    20    21 1   
    45    21    22 ar  
    46    21    23 ar  
    47    22    64 1   
    48    23    65 1   
    49    24    25 1   
    50    25    26 1   
    51    25    66 1   
    52    25    67 1   
    53    26    32 1   
    54    26    68 1   
    55    26    91 1   
    56    27    28 2   
    57    27    29 1   
    58    27    91 1   
    59    29    69 1   
    60    31    70 1   
    61    32    33 2   
    62    32    34 1   
    63    34    35 1   
    64    34    71 1   
    65    35    36 1   
    66    35    39 1   
    67    35    72 1   
    68    36    73 1   
    69    36    74 1   
    70    37    38 ar  
    71    37    75 1   
    72    38    76 1   
    73    39    40 2   
    74    39    41 1   
    75    41    42 1   
    76    41    77 1   
    77    42    43 1   
    78    42    44 1   
    79    42    78 1   
    80    43    79 1   
    81    43    80 1   
    82    43    81 1   
    83    44    45 1   
    84    44    46 1   
    85    44    82 1   
    86    45    83 1   
    87    46    47 1   
    88    46    48 1   
    89    46    84 1   
    90    47    85 1   
    91    47    86 1   
    92    47    87 1   
    93    48    49 1   
    94    48    88 1   
    95    48    89 1   
    96    49    90 1   
    97    91    94 1   
@<TRIPOS>SUBSTRUCTURE
     1 6KF         1 TEMP              0 ****  ****    0 ROOT
