@<TRIPOS>MOLECULE
6KF
   94    97     1     0     0
SMALL
abcg2


@<TRIPOS>ATOM
      1 N1           3.1260     2.8760     1.7990 n2         1 6KF      -0.400200
      2 N3           4.4050     4.8060     1.4700 n1         1 6KF      -0.071000
      3 C4           4.0720     0.9030     0.6410 c3         1 6KF      -0.046100
      4 C5           5.4130     1.5460     0.4440 ca         1 6KF      -0.099300
      5 C6           5.7910     2.0220    -0.8110 ca         1 6KF      -0.108000
      6 C7           7.0050     2.6680    -0.9880 ca         1 6KF      -0.106500
      7 C8           7.8610     2.8490     0.0920 ca         1 6KF      -0.104000
      8 C10          6.2800     1.7280     1.5170 ca         1 6KF      -0.108000
      9 C13          2.3750    -2.1450     1.2980 ca         1 6KF      -0.107000
     10 C15          1.9870    -2.1930    -1.0560 ca         1 6KF      -0.107000
     11 C17         -2.8800     3.9440    -2.4160 ca         1 6KF      -0.106000
     12 C20         -2.5430     1.2290    -2.8500 ca         1 6KF      -0.100500
     13 C21         -3.5630     1.6630    -2.0070 ca         1 6KF      -0.081300
     14 C22         -3.7240     3.0300    -1.8020 ca         1 6KF      -0.100500
     15 C24          6.5870    -2.7130     0.3510 ca         1 6KF      -0.098000
     16 C26          8.2060    -4.0450    -0.8320 ca         1 6KF      -0.106000
     17 C28          5.8700    -4.1930    -1.3940 ca         1 6KF      -0.098000
     18 C25          7.9010    -3.1060     0.1450 ca         1 6KF      -0.111000
     19 C27          7.1840    -4.5860    -1.6020 ca         1 6KF      -0.111000
     20 C23          5.5510    -3.2530    -0.4130 cp         1 6KF      -0.038000
     21 C11          4.1550    -2.8290    -0.1900 cp         1 6KF      -0.032000
     22 C16          3.2830    -2.6310    -1.2630 ca         1 6KF      -0.103000
     23 C12          3.6720    -2.5940     1.0950 ca         1 6KF      -0.103000
     24 C14          1.5140    -1.9270     0.2290 ca         1 6KF      -0.079300
     25 C29          0.1270    -1.3930     0.4520 c3         1 6KF      -0.040100
     26 C30         -0.1060    -0.0550    -0.2830 c3         1 6KF       0.050700
     27 C32          1.6250     1.2170     0.9180 c          1 6KF       0.628100
     28 O33          1.2340     0.9380     2.0350 o          1 6KF      -0.553100
     29 C34          2.9430     1.9480     0.6870 c3         1 6KF       0.091500
     30 N2           3.8080     3.8600     1.5710 n1         1 6KF       0.232000
     31 C9           7.4970     2.3760     1.3440 ca         1 6KF      -0.106500
     32 C35         -1.4040     0.6370     0.1510 c          1 6KF       0.596100
     33 O36         -1.4340     1.7830     0.5500 o          1 6KF      -0.563100
     34 N37         -2.4960    -0.1440     0.0210 ns         1 6KF      -0.499900
     35 C38         -3.8440     0.3460     0.1200 c3         1 6KF       0.030700
     36 C39         -4.4220     0.6720    -1.2780 c3         1 6KF      -0.051100
     37 C19         -1.6890     2.1390    -3.4590 ca         1 6KF      -0.106000
     38 C18         -1.8530     3.5000    -3.2410 ca         1 6KF      -0.103000
     39 C40         -4.7230    -0.7200     0.7630 c          1 6KF       0.597100
     40 O41         -4.4790    -1.9080     0.6100 o          1 6KF      -0.612100
     41 N42         -5.7900    -0.2400     1.4180 ns         1 6KF      -0.502900
     42 C43         -6.8470    -1.0490     1.9990 c3         1 6KF       0.079700
     43 C44         -6.9230    -0.8240     3.5040 c3         1 6KF      -0.103100
     44 C45         -8.1940    -0.7660     1.3110 c3         1 6KF       0.155300
     45 O46         -8.6120     0.5570     1.5840 oh         1 6KF      -0.654000
     46 C47         -8.2270    -1.0670    -0.1950 c3         1 6KF      -0.092700
     47 C48         -9.6040    -0.7400    -0.7730 c3         1 6KF      -0.083100
     48 C49         -7.8570    -2.5220    -0.4690 c3         1 6KF       0.161600
     49 O50         -7.9640    -2.7760    -1.8530 oh         1 6KF      -0.663000
     50 H2           3.8620     0.1980    -0.1680 hc         1 6KF       0.070700
     51 H3           4.0560     0.3310     1.5700 hc         1 6KF       0.070700
     52 H4           5.1270     1.8880    -1.6580 ha         1 6KF       0.113500
     53 H5           7.2850     3.0300    -1.9690 ha         1 6KF       0.114500
     54 H6           8.8080     3.3560    -0.0450 ha         1 6KF       0.114000
     55 H7           5.9980     1.3650     2.4980 ha         1 6KF       0.113500
     56 H9           1.3410    -2.0460    -1.9140 ha         1 6KF       0.116500
     57 H10         -3.0210     5.0040    -2.2480 ha         1 6KF       0.112000
     58 H11         -2.4150     0.1680    -3.0340 ha         1 6KF       0.107000
     59 H12         -4.5180     3.3840    -1.1540 ha         1 6KF       0.107000
     60 H14          9.2310    -4.3520    -0.9940 ha         1 6KF       0.113000
     61 H15          5.0830    -4.6380    -1.9920 ha         1 6KF       0.114500
     62 H16          8.6900    -2.6720     0.7460 ha         1 6KF       0.113500
     63 H17          7.4080    -5.3210    -2.3650 ha         1 6KF       0.113500
     64 H18          3.6280    -2.7980    -2.2760 ha         1 6KF       0.116500
     65 H19          4.3140    -2.7580     1.9530 ha         1 6KF       0.116500
     66 H20         -0.6030    -2.1180     0.0820 hc         1 6KF       0.070200
     67 H21         -0.0580    -1.2800     1.5190 hc         1 6KF       0.070200
     68 H22         -0.2300    -0.2790    -1.3460 h1         1 6KF       0.055700
     69 H24          2.9150     2.4900    -0.2650 h1         1 6KF       0.047700
     70 H25          8.1590     2.5100     2.1900 ha         1 6KF       0.114500
     71 H26         -2.3900    -1.0730    -0.3570 hn         1 6KF       0.325500
     72 H27         -3.8350     1.2530     0.7260 h1         1 6KF       0.093700
     73 H28         -5.4380     1.0560    -1.1610 hc         1 6KF       0.058200
     74 H29         -4.4890    -0.2560    -1.8500 hc         1 6KF       0.058200
     75 H30         -0.8970     1.7840    -4.1060 ha         1 6KF       0.112000
     76 H31         -1.1900     4.2110    -3.7160 ha         1 6KF       0.113000
     77 H32         -5.8320     0.7550     1.5790 hn         1 6KF       0.315500
     78 H33         -6.5820    -2.0930     1.8310 h1         1 6KF       0.082700
     79 H34         -7.1400     0.2160     3.7470 hc         1 6KF       0.047367
     80 H35         -7.7100    -1.4410     3.9390 hc         1 6KF       0.047367
     81 H36         -5.9810    -1.0970     3.9790 hc         1 6KF       0.047367
     82 H37         -8.9320    -1.4150     1.7990 h1         1 6KF       0.076700
     83 H38         -8.2000     1.1530     0.9500 ho         1 6KF       0.439000
     84 H39         -7.4810    -0.4290    -0.6900 hc         1 6KF       0.054700
     85 H40        -10.3800    -1.3390    -0.2910 hc         1 6KF       0.041700
     86 H41         -9.8650     0.3090    -0.6350 hc         1 6KF       0.041700
     87 H42         -9.6420    -0.9420    -1.8410 hc         1 6KF       0.041700
     88 H43         -6.8390    -2.7240    -0.1260 h1         1 6KF       0.027700
     89 H44         -8.5290    -3.1730     0.1100 h1         1 6KF       0.027700
     90 H45         -7.7080    -3.6900    -2.0060 ho         1 6KF       0.446000
     91 N31          1.0150     0.8430    -0.2160 ns         1 6KF      -0.493900
     92 H8           2.0330    -1.9500     2.3070 ha         1 6KF       0.116500
     93 H13          6.3700    -1.9630     1.1020 ha         1 6KF       0.114500
     94 H23          1.3900     1.1650    -1.0920 hn         1 6KF       0.316500
@<TRIPOS>BOND
     1     1    29 1   
     2     1    30 1   
     3     2    30 3   
     4     3     4 1   
     5     3    29 1   
     6     3    50 1   
     7     3    51 1   
     8     4     5 ar  
     9     4     8 ar  
    10     5     6 ar  
    11     5    52 1   
    12     6     7 ar  
    13     6    53 1   
    14     7    31 ar  
    15     7    54 1   
    16     8    31 ar  
    17     8    55 1   
    18     9    23 ar  
    19     9    24 ar  
    20     9    92 1   
    21    10    22 ar  
    22    10    24 ar  
    23    10    56 1   
    24    11    14 ar  
    25    11    38 ar  
    26    11    57 1   
    27    12    13 ar  
    28    12    37 ar  
    29    12    58 1   
    30    13    14 ar  
    31    13    36 1   
    32    14    59 1   
    33    15    18 ar  
    34    15    20 ar  
    35    15    93 1   
    36    16    18 ar  
    37    16    19 ar  
    38    16    60 1   
    39    17    19 ar  
    40    17    20 ar  
    41    17    61 1   
    42    18    62 1   
    43    19    63 1   
    44    20    21 1   
    45    21    22 ar  
    46    21    23 ar  
    47    22    64 1   
    48    23    65 1   
    49    24    25 1   
    50    25    26 1   
    51    25    66 1   
    52    25    67 1   
    53    26    32 1   
    54    26    68 1   
    55    26    91 1   
    56    27    28 2   
    57    27    29 1   
    58    27    91 1   
    59    29    69 1   
    60    31    70 1   
    61    32    33 2   
    62    32    34 1   
    63    34    35 1   
    64    34    71 1   
    65    35    36 1   
    66    35    39 1   
    67    35    72 1   
    68    36    73 1   
    69    36    74 1   
    70    37    38 ar  
    71    37    75 1   
    72    38    76 1   
    73    39    40 2   
    74    39    41 1   
    75    41    42 1   
    76    41    77 1   
    77    42    43 1   
    78    42    44 1   
    79    42    78 1   
    80    43    79 1   
    81    43    80 1   
    82    43    81 1   
    83    44    45 1   
    84    44    46 1   
    85    44    82 1   
    86    45    83 1   
    87    46    47 1   
    88    46    48 1   
    89    46    84 1   
    90    47    85 1   
    91    47    86 1   
    92    47    87 1   
    93    48    49 1   
    94    48    88 1   
    95    48    89 1   
    96    49    90 1   
    97    91    94 1   
@<TRIPOS>SUBSTRUCTURE
     1 6KF         1 TEMP              0 ****  ****    0 ROOT
