@<TRIPOS>MOLECULE
6KG
  102   104     1     0     0
SMALL
No Charge or Current Charge


@<TRIPOS>ATOM
      1 C4           8.0180     4.2170     1.5280 ca         1 6KG      -0.103000
      2 C5           8.4210     3.5350     0.3680 ca         1 6KG      -0.107500
      3 C6           7.4870     2.7850    -0.3680 ca         1 6KG      -0.107000
      4 C7           5.1290     1.8900    -0.7350 c3         1 6KG      -0.049100
      5 C8           4.7750     0.5450    -0.0480 c3         1 6KG       0.088500
      6 C15          1.1940    -0.9840    -0.2390 c3         1 6KG       0.030700
      7 C17          2.1610    -3.3100    -0.8980 c3         1 6KG      -0.070400
      8 C20          2.8660    -7.0780    -1.8370 c6         1 6KG      -0.073400
      9 C21          3.1120    -7.6340    -0.4140 c6         1 6KG      -0.074400
     10 C22          2.1530    -6.9810     0.6090 c6         1 6KG      -0.073400
     11 C24          0.0750    -0.2730     0.5690 c          1 6KG       0.584100
     12 C28         -2.2860     1.9760    -0.3050 c3         1 6KG      -0.041100
     13 C2           5.7460     3.4000     1.2160 ca         1 6KG      -0.107000
     14 C3           6.6800     4.1500     1.9510 ca         1 6KG      -0.107500
     15 C1           6.1440     2.7120     0.0530 ca         1 6KG      -0.098300
     16 N9           5.9410    -0.3670    -0.0580 n2         1 6KG      -0.405200
     17 N10          6.6510    -0.3770     0.9610 n1         1 6KG       0.232000
     18 N11          7.3560    -0.2640     1.8470 n1         1 6KG      -0.068000
     19 C12          3.5350    -0.1170    -0.7110 c          1 6KG       0.616100
     20 O13          3.4500    -0.3250    -1.9160 o          1 6KG      -0.562100
     21 N14          2.5070    -0.4290     0.1570 ns         1 6KG      -0.488900
     22 C16          1.1430    -2.5210    -0.0360 c3         1 6KG      -0.083400
     23 C18          2.0240    -4.8630    -0.8420 c6         1 6KG      -0.060700
     24 C19          2.9880    -5.5340    -1.8620 c6         1 6KG      -0.071400
     25 C23          2.2690    -5.4360     0.5860 c6         1 6KG      -0.071400
     26 N26         -1.1590    -0.2410    -0.0470 ns         1 6KG      -0.484900
     27 C27         -2.3020     0.5910     0.4000 c3         1 6KG       0.027700
     28 C29         -0.9300     2.6760    -0.2470 ca         1 6KG      -0.088300
     29 C30         -0.5510     3.3980     0.9020 ca         1 6KG      -0.098500
     30 C31          0.7100     4.0170     0.9670 ca         1 6KG      -0.105000
     31 C32          1.6000     3.9180    -0.1160 ca         1 6KG      -0.113000
     32 C33          1.2270     3.2010    -1.2650 ca         1 6KG      -0.105000
     33 C34         -0.0340     2.5840    -1.3310 ca         1 6KG      -0.098500
     34 C35         -3.6480    -0.1470     0.1610 c          1 6KG       0.591100
     35 O36         -3.7440    -1.1670    -0.5120 o          1 6KG      -0.610100
     36 N37         -4.7430     0.4360     0.7620 ns         1 6KG      -0.503900
     37 C38         -6.1280    -0.0370     0.6450 c3         1 6KG       0.080700
     38 C39         -6.4700    -0.9490     1.8580 c3         1 6KG      -0.083400
     39 C40         -7.8860    -1.5950     1.8560 c3         1 6KG      -0.057700
     40 C42         -8.1570    -2.4480     0.5930 c3         1 6KG      -0.089600
     41 C41         -8.1070    -2.4310     3.1370 c3         1 6KG      -0.089600
     42 C43         -7.1070     1.1700     0.4370 c3         1 6KG       0.155300
     43 O44         -7.0830     1.9920     1.6200 oh         1 6KG      -0.654000
     44 C45         -6.7960     2.0660    -0.8110 c3         1 6KG      -0.092700
     45 C48         -7.8230     3.2290    -0.9490 c3         1 6KG      -0.083100
     46 C46         -6.7110     1.2360    -2.1250 c3         1 6KG       0.161600
     47 O47         -6.3340     2.0680    -3.2310 oh         1 6KG      -0.662000
     48 H1           8.7410     4.7970     2.0970 ha         1 6KG       0.115000
     49 H2           9.4570     3.5850     0.0400 ha         1 6KG       0.115000
     50 H3           7.8100     2.2550    -1.2620 ha         1 6KG       0.114500
     51 H4           5.4920     1.6930    -1.7520 hc         1 6KG       0.075700
     52 H5           4.2100     2.4760    -0.8540 hc         1 6KG       0.075700
     53 H6           4.4860     0.7750     0.9870 h1         1 6KG       0.052700
     54 H7           1.0130    -0.7560    -1.2980 h1         1 6KG       0.090700
     55 H8           2.0480    -2.9800    -1.9390 hc         1 6KG       0.045700
     56 H9           3.1770    -3.0260    -0.5990 hc         1 6KG       0.045700
     57 H10          3.5860    -7.5200    -2.5390 hc         1 6KG       0.038950
     58 H11          1.8670    -7.3760    -2.1840 hc         1 6KG       0.038950
     59 H12          2.9760    -8.7240    -0.4110 hc         1 6KG       0.038700
     60 H13          4.1540    -7.4480    -0.1180 hc         1 6KG       0.038700
     61 H14          1.1180    -7.2770     0.3880 hc         1 6KG       0.038950
     62 H15          2.3750    -7.3550     1.6180 hc         1 6KG       0.038950
     63 H17         -3.0540     2.6190     0.1440 hc         1 6KG       0.058700
     64 H18          4.7120     3.3520     1.5530 ha         1 6KG       0.114500
     65 H19          6.3670     4.6780     2.8490 ha         1 6KG       0.115000
     66 H21          2.6450    -0.1950     1.1340 hn         1 6KG       0.318500
     67 H22          1.3110    -2.7380     1.0250 hc         1 6KG       0.055200
     68 H23          0.1330    -2.8750    -0.2750 hc         1 6KG       0.055200
     69 H24          0.9920    -5.0960    -1.1400 hc         1 6KG       0.046700
     70 H25          4.0250    -5.2460    -1.6400 hc         1 6KG       0.037700
     71 H26          2.7740    -5.1700    -2.8760 hc         1 6KG       0.037700
     72 H27          1.5430    -5.0200     1.2960 hc         1 6KG       0.037700
     73 H28          3.2640    -5.1360     0.9430 hc         1 6KG       0.037700
     74 H29         -1.2500    -0.7410    -0.9250 hn         1 6KG       0.334500
     75 H30         -2.2190     0.7490     1.4830 h1         1 6KG       0.091700
     76 H31         -1.2300     3.4720     1.7480 ha         1 6KG       0.110000
     77 H32          0.9970     4.5710     1.8580 ha         1 6KG       0.120000
     78 H33          2.5750     4.3980    -0.0650 ha         1 6KG       0.111000
     79 H34          1.9140     3.1230    -2.1060 ha         1 6KG       0.120000
     80 H35         -0.3110     2.0260    -2.2230 ha         1 6KG       0.110000
     81 H36         -4.5820     1.2770     1.3040 hn         1 6KG       0.313500
     82 H37         -6.1920    -0.6720    -0.2460 h1         1 6KG       0.085700
     83 H38         -5.7240    -1.7520     1.9040 hc         1 6KG       0.048200
     84 H39         -6.3480    -0.3690     2.7810 hc         1 6KG       0.048200
     85 H40         -8.6300    -0.7900     1.8780 hc         1 6KG       0.054700
     86 H41         -9.1420    -2.9270     0.6550 hc         1 6KG       0.033700
     87 H42         -8.1510    -1.8300    -0.3130 hc         1 6KG       0.033700
     88 H43         -7.4010    -3.2340     0.4820 hc         1 6KG       0.033700
     89 H44         -7.4020    -3.2690     3.1840 hc         1 6KG       0.033700
     90 H45         -7.9680    -1.8140     4.0320 hc         1 6KG       0.033700
     91 H46         -9.1260    -2.8380     3.1640 hc         1 6KG       0.033700
     92 H47         -8.1160     0.7570     0.2930 h1         1 6KG       0.079700
     93 H48         -7.7910     2.6630     1.5210 ho         1 6KG       0.438000
     94 H49         -5.8110     2.5240    -0.6570 hc         1 6KG       0.054700
     95 H50         -8.8380     2.8380    -1.0850 hc         1 6KG       0.041700
     96 H51         -7.8190     3.8770    -0.0650 hc         1 6KG       0.041700
     97 H52         -7.5880     3.8670    -1.8090 hc         1 6KG       0.041700
     98 H53         -5.9670     0.4380    -2.0150 h1         1 6KG       0.025700
     99 H54         -7.6830     0.7630    -2.3180 h1         1 6KG       0.025700
    100 H55         -6.3130     1.4930    -4.0280 ho         1 6KG       0.446000
    101 O25          0.2690     0.2430     1.6640 o          1 6KG      -0.608100
    102 H16         -2.5870     1.8410    -1.3510 hc         1 6KG       0.058700
@<TRIPOS>BOND
     1     1     2 ar  
     2     1    14 ar  
     3     1    48 1   
     4     2     3 ar  
     5     2    49 1   
     6     3    15 ar  
     7     3    50 1   
     8     4     5 1   
     9     4    15 1   
    10     4    51 1   
    11     4    52 1   
    12     5    16 1   
    13     5    19 1   
    14     5    53 1   
    15     6    11 1   
    16     6    21 1   
    17     6    22 1   
    18     6    54 1   
    19     7    22 1   
    20     7    23 1   
    21     7    55 1   
    22     7    56 1   
    23     8     9 1   
    24     8    24 1   
    25     8    57 1   
    26     8    58 1   
    27     9    10 1   
    28     9    59 1   
    29     9    60 1   
    30    10    25 1   
    31    10    61 1   
    32    10    62 1   
    33    11    26 1   
    34    11   101 2   
    35    12    27 1   
    36    12    28 1   
    37    12    63 1   
    38    12   102 1   
    39    13    14 ar  
    40    13    15 ar  
    41    13    64 1   
    42    14    65 1   
    43    16    17 1   
    44    17    18 3   
    45    19    20 2   
    46    19    21 1   
    47    21    66 1   
    48    22    67 1   
    49    22    68 1   
    50    23    24 1   
    51    23    25 1   
    52    23    69 1   
    53    24    70 1   
    54    24    71 1   
    55    25    72 1   
    56    25    73 1   
    57    26    27 1   
    58    26    74 1   
    59    27    34 1   
    60    27    75 1   
    61    28    29 ar  
    62    28    33 ar  
    63    29    30 ar  
    64    29    76 1   
    65    30    31 ar  
    66    30    77 1   
    67    31    32 ar  
    68    31    78 1   
    69    32    33 ar  
    70    32    79 1   
    71    33    80 1   
    72    34    35 2   
    73    34    36 1   
    74    36    37 1   
    75    36    81 1   
    76    37    38 1   
    77    37    42 1   
    78    37    82 1   
    79    38    39 1   
    80    38    83 1   
    81    38    84 1   
    82    39    40 1   
    83    39    41 1   
    84    39    85 1   
    85    40    86 1   
    86    40    87 1   
    87    40    88 1   
    88    41    89 1   
    89    41    90 1   
    90    41    91 1   
    91    42    43 1   
    92    42    44 1   
    93    42    92 1   
    94    43    93 1   
    95    44    45 1   
    96    44    46 1   
    97    44    94 1   
    98    45    95 1   
    99    45    96 1   
   100    45    97 1   
   101    46    47 1   
   102    46    98 1   
   103    46    99 1   
   104    47   100 1   
@<TRIPOS>SUBSTRUCTURE
     1 6KG         1 TEMP              0 ****  ****    0 ROOT
