@<TRIPOS>MOLECULE
6KG
  102   104     1     0     0
SMALL
bcc


@<TRIPOS>ATOM
      1 C4           7.3580     3.7400     2.4650 ca         1 6KG      -0.121000
      2 C5           6.6840     4.3650     1.4240 ca         1 6KG      -0.125500
      3 C6           5.5900     3.7460     0.8340 ca         1 6KG      -0.125000
      4 C7           4.0240     1.7980     0.5830 c3         1 6KG      -0.049100
      5 C8           4.5380     0.7460    -0.4230 c3         1 6KG       0.088500
      6 C15          1.3250    -1.1520    -0.7900 c3         1 6KG       0.030700
      7 C17          1.8700    -3.6240    -1.0560 c3         1 6KG      -0.070400
      8 C20          1.9370    -7.4980    -1.2720 c6         1 6KG      -0.073400
      9 C21          2.2370    -7.8070     0.1910 c6         1 6KG      -0.074400
     10 C22          1.4960    -6.8450     1.1130 c6         1 6KG      -0.073400
     11 C24          0.3570    -0.1860    -0.1020 c          1 6KG       0.651100
     12 C28         -1.9750     2.1500    -1.0940 c3         1 6KG      -0.041100
     13 C2           5.8360     1.8830     2.3210 ca         1 6KG      -0.125000
     14 C3           6.9290     2.4980     2.9150 ca         1 6KG      -0.125500
     15 C1           5.1570     2.4980     1.2720 ca         1 6KG      -0.098300
     16 N9           5.4260     1.3440    -1.4130 n2         1 6KG      -0.405200
     17 N10          6.6040     1.4040    -1.1120 n1         1 6KG       0.232000
     18 N11          7.7120     1.4980    -0.9480 n1         1 6KG      -0.068000
     19 C12          3.3370     0.1780    -1.1690 c          1 6KG       0.683100
     20 O13          2.9900     0.5950    -2.2570 o          1 6KG      -0.562100
     21 N14          2.6800    -0.7750    -0.4820 ns         1 6KG      -0.555900
     22 C16          1.0320    -2.5800    -0.3280 c3         1 6KG      -0.083400
     23 C18          1.5100    -5.0650    -0.6950 c6         1 6KG      -0.060700
     24 C19          2.2510    -6.0430    -1.6070 c6         1 6KG      -0.071400
     25 C23          1.8050    -5.3900     0.7710 c6         1 6KG      -0.071400
     26 N26         -0.7910     0.0140    -0.7670 ns         1 6KG      -0.551900
     27 C27         -1.8660     0.8380    -0.2890 c3         1 6KG       0.027700
     28 C29         -0.7450     2.9990    -0.9580 ca         1 6KG      -0.088300
     29 C30         -0.6480     3.9370     0.0680 ca         1 6KG      -0.116500
     30 C31          0.4920     4.7140     0.2170 ca         1 6KG      -0.123000
     31 C32          1.5570     4.5620    -0.6620 ca         1 6KG      -0.131000
     32 C33          1.4750     3.6250    -1.6830 ca         1 6KG      -0.123000
     33 C34          0.3310     2.8510    -1.8290 ca         1 6KG      -0.116500
     34 C35         -3.1850     0.0770    -0.4000 c          1 6KG       0.658100
     35 O36         -3.3650    -0.7450    -1.2850 o          1 6KG      -0.610100
     36 N37         -4.1080     0.4440     0.5000 ns         1 6KG      -0.570900
     37 C38         -5.4610    -0.0820     0.5800 c3         1 6KG       0.080700
     38 C39         -5.6240    -0.8490     1.8950 c3         1 6KG      -0.083400
     39 C40         -6.9890    -1.4960     2.1350 c3         1 6KG      -0.057700
     40 C42         -7.3810    -2.4520     1.0120 c3         1 6KG      -0.089600
     41 C41         -6.9760    -2.2280     3.4740 c3         1 6KG      -0.089600
     42 C43         -6.4920     1.0490     0.4160 c3         1 6KG       0.132100
     43 O44         -6.4480     1.9170     1.5300 oh         1 6KG      -0.591800
     44 C45         -6.3980     1.8230    -0.9090 c3         1 6KG      -0.092700
     45 C48         -7.4790     2.9020    -0.9670 c3         1 6KG      -0.083100
     46 C46         -6.5110     0.8760    -2.0990 c3         1 6KG       0.138400
     47 O47         -6.5080     1.6260    -3.2930 oh         1 6KG      -0.599800
     48 H1           8.2110     4.2220     2.9260 ha         1 6KG       0.133000
     49 H2           7.0080     5.3360     1.0720 ha         1 6KG       0.133000
     50 H3           5.0700     4.2380     0.0200 ha         1 6KG       0.132500
     51 H4           3.3970     2.5140     0.0500 hc         1 6KG       0.075700
     52 H5           3.3790     1.2960     1.3080 hc         1 6KG       0.075700
     53 H6           5.0460    -0.0560     0.1240 h1         1 6KG       0.052700
     54 H7           1.1960    -1.1010    -1.8740 h1         1 6KG       0.090700
     55 H8           1.7390    -3.4860    -2.1350 hc         1 6KG       0.045700
     56 H9           2.9330    -3.4610    -0.8530 hc         1 6KG       0.045700
     57 H10          2.5050    -8.1650    -1.9260 hc         1 6KG       0.038950
     58 H11          0.8790    -7.6950    -1.4740 hc         1 6KG       0.038950
     59 H12          1.9670    -8.8400     0.4240 hc         1 6KG       0.038700
     60 H13          3.3150    -7.7200     0.3660 hc         1 6KG       0.038700
     61 H14          0.4170    -7.0160     1.0220 hc         1 6KG       0.038950
     62 H15          1.7520    -7.0450     2.1560 hc         1 6KG       0.038950
     63 H17         -2.8490     2.7030    -0.7410 hc         1 6KG       0.058700
     64 H18          5.5080     0.9130     2.6770 ha         1 6KG       0.132500
     65 H19          7.4460     2.0070     3.7300 ha         1 6KG       0.133000
     66 H21          3.0120    -1.0070     0.4430 hn         1 6KG       0.318500
     67 H22          1.1820    -2.6440     0.7530 hc         1 6KG       0.055200
     68 H23         -0.0290    -2.7820    -0.5040 hc         1 6KG       0.055200
     69 H24          0.4320    -5.1980    -0.8640 hc         1 6KG       0.046700
     70 H25          3.3310    -5.8730    -1.5080 hc         1 6KG       0.037700
     71 H26          2.0010    -5.8370    -2.6510 hc         1 6KG       0.037700
     72 H27          1.2340    -4.7330     1.4320 hc         1 6KG       0.037700
     73 H28          2.8640    -5.1850     0.9700 hc         1 6KG       0.037700
     74 H29         -0.9170    -0.4210    -1.6690 hn         1 6KG       0.334500
     75 H30         -1.6580     1.0810     0.7540 h1         1 6KG       0.091700
     76 H31         -1.4760     4.0650     0.7570 ha         1 6KG       0.128000
     77 H32          0.5460     5.4420     1.0160 ha         1 6KG       0.138000
     78 H33          2.4440     5.1730    -0.5520 ha         1 6KG       0.129000
     79 H34          2.3020     3.4910    -2.3670 ha         1 6KG       0.138000
     80 H35          0.2800     2.1240    -2.6300 ha         1 6KG       0.128000
     81 H36         -3.8120     1.0510     1.2500 hn         1 6KG       0.313500
     82 H37         -5.5770    -0.7800    -0.2490 h1         1 6KG       0.085700
     83 H38         -4.8600    -1.6330     1.9170 hc         1 6KG       0.048200
     84 H39         -5.4020    -0.1760     2.7290 hc         1 6KG       0.048200
     85 H40         -7.7500    -0.7110     2.2020 hc         1 6KG       0.054700
     86 H41         -8.3280    -2.9460     1.2340 hc         1 6KG       0.033700
     87 H42         -7.5020    -1.9450     0.0530 hc         1 6KG       0.033700
     88 H43         -6.6240    -3.2290     0.8810 hc         1 6KG       0.033700
     89 H44         -6.2500    -3.0450     3.4690 hc         1 6KG       0.033700
     90 H45         -6.7150    -1.5560     4.2940 hc         1 6KG       0.033700
     91 H46         -7.9550    -2.6580     3.6970 hc         1 6KG       0.033700
     92 H47         -7.4840     0.5820     0.4460 h1         1 6KG       0.079700
     93 H48         -5.7440     2.5620     1.4000 ho         1 6KG       0.399000
     94 H49         -5.4150     2.3130    -0.9550 hc         1 6KG       0.054700
     95 H50         -8.4760     2.4540    -0.9500 hc         1 6KG       0.041700
     96 H51         -7.4080     3.5860    -0.1230 hc         1 6KG       0.041700
     97 H52         -7.3970     3.4980    -1.8740 hc         1 6KG       0.041700
     98 H53         -5.6810     0.1630    -2.0990 h1         1 6KG       0.025700
     99 H54         -7.4380     0.2890    -1.9980 h1         1 6KG       0.025700
    100 H55         -6.5460     1.0100    -4.0300 ho         1 6KG       0.407000
    101 O25          0.6160     0.3050     0.9840 o          1 6KG      -0.608100
    102 H16         -2.1600     1.9050    -2.1430 hc         1 6KG       0.058700
@<TRIPOS>BOND
     1     1     2 ar  
     2     1    14 ar  
     3     1    48 1   
     4     2     3 ar  
     5     2    49 1   
     6     3    15 ar  
     7     3    50 1   
     8     4     5 1   
     9     4    15 1   
    10     4    51 1   
    11     4    52 1   
    12     5    16 1   
    13     5    19 1   
    14     5    53 1   
    15     6    11 1   
    16     6    21 1   
    17     6    22 1   
    18     6    54 1   
    19     7    22 1   
    20     7    23 1   
    21     7    55 1   
    22     7    56 1   
    23     8     9 1   
    24     8    24 1   
    25     8    57 1   
    26     8    58 1   
    27     9    10 1   
    28     9    59 1   
    29     9    60 1   
    30    10    25 1   
    31    10    61 1   
    32    10    62 1   
    33    11    26 1   
    34    11   101 2   
    35    12    27 1   
    36    12    28 1   
    37    12    63 1   
    38    12   102 1   
    39    13    14 ar  
    40    13    15 ar  
    41    13    64 1   
    42    14    65 1   
    43    16    17 1   
    44    17    18 3   
    45    19    20 2   
    46    19    21 1   
    47    21    66 1   
    48    22    67 1   
    49    22    68 1   
    50    23    24 1   
    51    23    25 1   
    52    23    69 1   
    53    24    70 1   
    54    24    71 1   
    55    25    72 1   
    56    25    73 1   
    57    26    27 1   
    58    26    74 1   
    59    27    34 1   
    60    27    75 1   
    61    28    29 ar  
    62    28    33 ar  
    63    29    30 ar  
    64    29    76 1   
    65    30    31 ar  
    66    30    77 1   
    67    31    32 ar  
    68    31    78 1   
    69    32    33 ar  
    70    32    79 1   
    71    33    80 1   
    72    34    35 2   
    73    34    36 1   
    74    36    37 1   
    75    36    81 1   
    76    37    38 1   
    77    37    42 1   
    78    37    82 1   
    79    38    39 1   
    80    38    83 1   
    81    38    84 1   
    82    39    40 1   
    83    39    41 1   
    84    39    85 1   
    85    40    86 1   
    86    40    87 1   
    87    40    88 1   
    88    41    89 1   
    89    41    90 1   
    90    41    91 1   
    91    42    43 1   
    92    42    44 1   
    93    42    92 1   
    94    43    93 1   
    95    44    45 1   
    96    44    46 1   
    97    44    94 1   
    98    45    95 1   
    99    45    96 1   
   100    45    97 1   
   101    46    47 1   
   102    46    98 1   
   103    46    99 1   
   104    47   100 1   
@<TRIPOS>SUBSTRUCTURE
     1 6KG         1 TEMP              0 ****  ****    0 ROOT
