@<TRIPOS>MOLECULE
6KH
   44    44     1     0     0
SMALL
No Charge or Current Charge


@<TRIPOS>ATOM
      1 C4          -3.2940     0.5160    -0.8050 c6         1 6KH       0.116300
      2 C5          -2.1180     1.2290    -0.0640 c6         1 6KH       0.172300
      3 C6          -2.3970     2.7520     0.1680 c3         1 6KH       0.168600
      4 C3          -2.9940    -1.0110    -0.8800 c6         1 6KH       0.171300
      5 CAR          8.4250     0.3140    -0.3770 c3         1 6KH      -0.088100
      6 CAQ          7.0750    -0.2350    -0.8770 c3         1 6KH      -0.075400
      7 CAP          5.9050     0.0690     0.0840 c3         1 6KH      -0.076400
      8 CAO          4.5520    -0.4810    -0.4180 c3         1 6KH      -0.074400
      9 CAN          3.3820    -0.1770     0.5440 c3         1 6KH      -0.074400
     10 CAM          2.0280    -0.7270     0.0420 c3         1 6KH      -0.083400
     11 CAL          0.8630    -0.4220     1.0020 c3         1 6KH       0.165600
     12 O1          -0.3290    -0.9780     0.4240 os         1 6KH      -0.490000
     13 C1          -1.5450    -0.8020     1.1760 c6         1 6KH       0.354300
     14 O5          -1.8750     0.6060     1.2310 os         1 6KH      -0.456000
     15 O6          -1.3410     3.4300     0.8830 oh         1 6KH      -0.713000
     16 O4          -3.5040     1.0720    -2.1240 oh         1 6KH      -0.717000
     17 F3          -4.1020    -1.6670    -1.4720 f          1 6KH      -0.261000
     18 C2          -2.7270    -1.6090     0.5340 c6         1 6KH       0.126300
     19 O2          -3.9290    -1.5610     1.3530 oh         1 6KH      -0.698000
     20 H1          -4.2030     0.6540    -0.1980 h1         1 6KH       0.067700
     21 H2          -1.2080     1.1480    -0.6750 h1         1 6KH       0.070700
     22 H3          -2.5450     3.2270    -0.8120 h1         1 6KH       0.034700
     23 H4          -3.3430     2.8450     0.7180 h1         1 6KH       0.034700
     24 H5          -2.1230    -1.1890    -1.5270 h1         1 6KH       0.084700
     25 H6           8.6880    -0.1270     0.5920 hc         1 6KH       0.031367
     26 H7           9.2220     0.0750    -1.0910 hc         1 6KH       0.031367
     27 H8           8.3830     1.4040    -0.2630 hc         1 6KH       0.031367
     28 H9           6.8580     0.1970    -1.8620 hc         1 6KH       0.036700
     29 H10          7.1600    -1.3200    -1.0150 hc         1 6KH       0.036700
     30 H11          6.1260    -0.3630     1.0680 hc         1 6KH       0.037700
     31 H12          5.8240     1.1550     0.2210 hc         1 6KH       0.037700
     32 H13          4.3300    -0.0490    -1.4020 hc         1 6KH       0.038700
     33 H14          4.6330    -1.5670    -0.5550 hc         1 6KH       0.038700
     34 H15          3.6030    -0.6090     1.5280 hc         1 6KH       0.040200
     35 H16          3.3000     0.9080     0.6810 hc         1 6KH       0.040200
     36 H17          1.8040    -0.2940    -0.9410 hc         1 6KH       0.050200
     37 H18          2.1060    -1.8130    -0.0930 hc         1 6KH       0.050200
     38 H19          1.0660    -0.8710     1.9830 h1         1 6KH       0.037200
     39 H20          0.7690     0.6650     1.1280 h1         1 6KH       0.037200
     40 H21         -1.3840    -1.1730     2.2000 h2         1 6KH       0.066700
     41 H22         -1.6450     4.3550     1.0360 ho         1 6KH       0.503000
     42 H23         -4.2210     0.5400    -2.5470 ho         1 6KH       0.517000
     43 H24         -2.4000    -2.6520     0.4080 h1         1 6KH       0.064700
     44 H25         -3.7610    -2.1010     2.1600 ho         1 6KH       0.509000
@<TRIPOS>BOND
     1     1     2 1   
     2     1     4 1   
     3     1    16 1   
     4     1    20 1   
     5     2     3 1   
     6     2    14 1   
     7     2    21 1   
     8     3    15 1   
     9     3    22 1   
    10     3    23 1   
    11     4    17 1   
    12     4    18 1   
    13     4    24 1   
    14     5     6 1   
    15     5    25 1   
    16     5    26 1   
    17     5    27 1   
    18     6     7 1   
    19     6    28 1   
    20     6    29 1   
    21     7     8 1   
    22     7    30 1   
    23     7    31 1   
    24     8     9 1   
    25     8    32 1   
    26     8    33 1   
    27     9    10 1   
    28     9    34 1   
    29     9    35 1   
    30    10    11 1   
    31    10    36 1   
    32    10    37 1   
    33    11    12 1   
    34    11    38 1   
    35    11    39 1   
    36    12    13 1   
    37    13    14 1   
    38    13    18 1   
    39    13    40 1   
    40    15    41 1   
    41    16    42 1   
    42    18    19 1   
    43    18    43 1   
    44    19    44 1   
@<TRIPOS>SUBSTRUCTURE
     1 6KH         1 TEMP              0 ****  ****    0 ROOT
