@<TRIPOS>MOLECULE
6KH
   44    44     1     0     0
SMALL
abcg2


@<TRIPOS>ATOM
      1 C4          -3.4210     0.5040    -0.6510 c6         1 6KH       0.116300
      2 C5          -2.2740     1.2730     0.0170 c6         1 6KH       0.172300
      3 C6          -2.7190     2.6530     0.4550 c3         1 6KH       0.168600
      4 C3          -2.9740    -0.9270    -0.8940 c6         1 6KH       0.171300
      5 CAR          8.4470     0.1390    -0.1770 c3         1 6KH      -0.088100
      6 CAQ          7.1470    -0.4900    -0.6600 c3         1 6KH      -0.075400
      7 CAP          5.9180     0.0650     0.0510 c3         1 6KH      -0.076400
      8 CAO          4.6150    -0.5710    -0.4160 c3         1 6KH      -0.074400
      9 CAN          3.3910    -0.0350     0.3140 c3         1 6KH      -0.074400
     10 CAM          2.0930    -0.6850    -0.1510 c3         1 6KH      -0.083400
     11 CAL          0.8990    -0.1730     0.6280 c3         1 6KH       0.165600
     12 O1          -0.2760    -0.8010     0.1400 os         1 6KH      -0.490000
     13 C1          -1.3780    -0.7170     0.9800 c6         1 6KH       0.354300
     14 O5          -1.8230     0.5930     1.1740 os         1 6KH      -0.456000
     15 O6          -1.6040     3.3540     0.9510 oh         1 6KH      -0.713000
     16 O4          -3.7200     1.1570    -1.8610 oh         1 6KH      -0.717000
     17 F3          -4.0360    -1.6570    -1.4260 f          1 6KH      -0.261000
     18 C2          -2.4870    -1.5900     0.3780 c6         1 6KH       0.126300
     19 O2          -3.5710    -1.6870     1.2640 oh         1 6KH      -0.698000
     20 H1          -4.2880     0.5040     0.0240 h1         1 6KH       0.067700
     21 H2          -1.4600     1.3790    -0.7150 h1         1 6KH       0.070700
     22 H3          -3.1680     3.1620    -0.4050 h1         1 6KH       0.034700
     23 H4          -3.5060     2.5440     1.2140 h1         1 6KH       0.034700
     24 H5          -2.1720    -0.9330    -1.6380 h1         1 6KH       0.084700
     25 H6           8.5880    -0.0230     0.8930 hc         1 6KH       0.031367
     26 H7           9.3110    -0.2820    -0.6920 hc         1 6KH       0.031367
     27 H8           8.4530     1.2170    -0.3490 hc         1 6KH       0.031367
     28 H9           7.0420    -0.3340    -1.7380 hc         1 6KH       0.036700
     29 H10          7.1880    -1.5740    -0.5140 hc         1 6KH       0.036700
     30 H11          6.0270    -0.0860     1.1310 hc         1 6KH       0.037700
     31 H12          5.8700     1.1490    -0.0990 hc         1 6KH       0.037700
     32 H13          4.4980    -0.4090    -1.4940 hc         1 6KH       0.038700
     33 H14          4.6720    -1.6560    -0.2780 hc         1 6KH       0.038700
     34 H15          3.5130    -0.1960     1.3910 hc         1 6KH       0.040200
     35 H16          3.3280     1.0490     0.1740 hc         1 6KH       0.040200
     36 H17          1.9480    -0.4900    -1.2180 hc         1 6KH       0.050200
     37 H18          2.1640    -1.7710    -0.0330 hc         1 6KH       0.050200
     38 H19          1.0270    -0.3930     1.6970 h1         1 6KH       0.037200
     39 H20          0.8240     0.9160     0.5310 h1         1 6KH       0.037200
     40 H21         -1.1260    -1.0790     1.9870 h2         1 6KH       0.066700
     41 H22         -1.8980     4.2330     1.2060 ho         1 6KH       0.503000
     42 H23         -4.5710     0.8410    -2.1800 ho         1 6KH       0.517000
     43 H24         -2.0680    -2.5770     0.1430 h1         1 6KH       0.064700
     44 H25         -3.3100    -2.2330     2.0120 ho         1 6KH       0.509000
@<TRIPOS>BOND
     1     1     2 1   
     2     1     4 1   
     3     1    16 1   
     4     1    20 1   
     5     2     3 1   
     6     2    14 1   
     7     2    21 1   
     8     3    15 1   
     9     3    22 1   
    10     3    23 1   
    11     4    17 1   
    12     4    18 1   
    13     4    24 1   
    14     5     6 1   
    15     5    25 1   
    16     5    26 1   
    17     5    27 1   
    18     6     7 1   
    19     6    28 1   
    20     6    29 1   
    21     7     8 1   
    22     7    30 1   
    23     7    31 1   
    24     8     9 1   
    25     8    32 1   
    26     8    33 1   
    27     9    10 1   
    28     9    34 1   
    29     9    35 1   
    30    10    11 1   
    31    10    36 1   
    32    10    37 1   
    33    11    12 1   
    34    11    38 1   
    35    11    39 1   
    36    12    13 1   
    37    13    14 1   
    38    13    18 1   
    39    13    40 1   
    40    15    41 1   
    41    16    42 1   
    42    18    19 1   
    43    18    43 1   
    44    19    44 1   
@<TRIPOS>SUBSTRUCTURE
     1 6KH         1 TEMP              0 ****  ****    0 ROOT
