@<TRIPOS>MOLECULE
6KJ
   36    35     1     0     0
SMALL
abcg2


@<TRIPOS>ATOM
      1 OA2          9.0900    -2.8340    21.7450 o          1 6KJ      -0.733500
      2 C            9.2910    -3.1560    22.9450 c          1 6KJ       0.688000
      3 OA1          9.4870    -4.3200    23.3790 o          1 6KJ      -0.733500
      4 CA           9.3390    -1.9910    23.9710 c3         1 6KJ       0.014500
      5 N            9.0340    -2.3830    25.3530 n8         1 6KJ      -1.010200
      6 CB          10.7260    -1.3370    23.9020 c3         1 6KJ      -0.042400
      7 CG          10.8080    -0.0390    24.6910 c3         1 6KJ      -0.134700
      8 CD          12.1330     0.6370    24.6890 c2         1 6KJ       0.491200
      9 NE          13.1530     0.1770    24.0910 ne         1 6KJ      -0.696000
     10 CZ          14.3680     0.8600    24.1640 ce         1 6KJ       0.793200
     11 NH2         15.1950     0.8180    25.1420 n2         1 6KJ      -0.871100
     12 NH1         14.6840     1.6310    23.0570 nu         1 6KJ      -0.640900
     13 OH          14.1500     1.2020    21.8320 os         1 6KJ      -0.221300
     14 C1          13.4250     2.2640    21.1250 c3         1 6KJ       0.177000
     15 C4          13.0100     1.5700    19.8350 c3         1 6KJ      -0.100767
     16 C3          12.2080     2.7060    21.9270 c3         1 6KJ      -0.100767
     17 C2          14.3660     3.4310    20.8460 c3         1 6KJ      -0.100767
     18 H2           8.5950    -1.2530    23.6600 h1         1 6KJ       0.033700
     19 H3           8.0480    -2.6190    25.4160 hn         1 6KJ       0.384500
     20 H4           9.5210    -3.2580    25.5300 hn         1 6KJ       0.384500
     21 H6          10.9750    -1.1440    22.8570 hc         1 6KJ       0.055200
     22 H7          11.4690    -2.0460    24.2790 hc         1 6KJ       0.055200
     23 H8          10.0800     0.6890    24.3090 hc         1 6KJ       0.056700
     24 H9          10.5180    -0.2010    25.7350 hc         1 6KJ       0.056700
     25 H10         12.1850     1.5870    25.2330 h4         1 6KJ      -0.051200
     26 H11         14.7880     0.3070    25.9210 hn         1 6KJ       0.390400
     27 H12         15.6800     1.8000    22.9660 hn         1 6KJ       0.464000
     28 H13         13.8860     1.2360    19.2770 hc         1 6KJ       0.043700
     29 H14         12.3800     0.7060    20.0520 hc         1 6KJ       0.043700
     30 H15         12.4450     2.2620    19.2100 hc         1 6KJ       0.043700
     31 H16         12.5050     3.1200    22.8910 hc         1 6KJ       0.043700
     32 H17         11.6690     3.4790    21.3770 hc         1 6KJ       0.043700
     33 H18         11.5320     1.8670    22.0950 hc         1 6KJ       0.043700
     34 H19         14.6750     3.9150    21.7730 hc         1 6KJ       0.043700
     35 H20         15.2550     3.0850    20.3150 hc         1 6KJ       0.043700
     36 H21         13.8610     4.1740    20.2280 hc         1 6KJ       0.043700
@<TRIPOS>BOND
     1     1     2 1   
     2     2     3 1   
     3     2     4 1   
     4     4     5 1   
     5     4     6 1   
     6     4    18 1   
     7     5    19 1   
     8     5    20 1   
     9     6     7 1   
    10     6    21 1   
    11     6    22 1   
    12     7     8 1   
    13     7    23 1   
    14     7    24 1   
    15     8     9 2   
    16     8    25 1   
    17     9    10 1   
    18    10    11 2   
    19    10    12 1   
    20    11    26 1   
    21    12    13 1   
    22    12    27 1   
    23    13    14 1   
    24    14    15 1   
    25    14    16 1   
    26    14    17 1   
    27    15    28 1   
    28    15    29 1   
    29    15    30 1   
    30    16    31 1   
    31    16    32 1   
    32    16    33 1   
    33    17    34 1   
    34    17    35 1   
    35    17    36 1   
@<TRIPOS>SUBSTRUCTURE
     1 6KJ         1 TEMP              0 ****  ****    0 ROOT
