@<TRIPOS>MOLECULE
6KJ
   36    35     1     0     0
SMALL
No Charge or Current Charge


@<TRIPOS>ATOM
      1 OA2          7.9830    -1.7550    21.8440 o          1 6KJ      -0.733500
      2 C            8.9850    -2.2510    22.3410 c          1 6KJ       0.688000
      3 OA1          9.6050    -3.1680    21.8160 o          1 6KJ      -0.733500
      4 CA           9.4090    -1.7880    23.7960 c3         1 6KJ       0.014500
      5 N            9.5800    -2.8860    24.8180 n8         1 6KJ      -1.010200
      6 CB          10.6760    -0.8930    23.7230 c3         1 6KJ      -0.042400
      7 CG          11.0090    -0.1390    25.0370 c3         1 6KJ      -0.134700
      8 CD          12.1810     0.8030    24.8870 c2         1 6KJ       0.491200
      9 NE          13.4010     0.3650    24.9510 ne         1 6KJ      -0.696000
     10 CZ          14.3780     1.2990    24.7270 ce         1 6KJ       0.793200
     11 NH2         15.3620     1.4340    25.5080 n2         1 6KJ      -0.871100
     12 NH1         14.4150     1.8300    23.4520 nu         1 6KJ      -0.640900
     13 OH          13.8770     1.0920    22.3220 os         1 6KJ      -0.221300
     14 C1          13.3050     1.9190    21.2700 c3         1 6KJ       0.177000
     15 C4          12.7860     0.9210    20.2110 c3         1 6KJ      -0.100767
     16 C3          12.1310     2.7550    21.8450 c3         1 6KJ      -0.100767
     17 C2          14.4220     2.8140    20.6720 c3         1 6KJ      -0.100767
     18 H2           8.5900    -1.1520    24.1620 h1         1 6KJ       0.033700
     19 H3           8.7050    -3.4210    24.8820 hn         1 6KJ       0.384500
     20 H4          10.2430    -3.5750    24.4410 hn         1 6KJ       0.384500
     21 H6          10.5270    -0.1520    22.9280 hc         1 6KJ       0.055200
     22 H7          11.5380    -1.5000    23.4200 hc         1 6KJ       0.055200
     23 H8          10.1300     0.4340    25.3540 hc         1 6KJ       0.056700
     24 H9          11.2160    -0.8600    25.8360 hc         1 6KJ       0.056700
     25 H10         11.9730     1.8590    24.7300 h4         1 6KJ      -0.051200
     26 H11         15.1870     0.7870    26.2870 hn         1 6KJ       0.390400
     27 H12         15.3600     2.1350    23.2350 hn         1 6KJ       0.464000
     28 H13         13.6050     0.3030    19.8230 hc         1 6KJ       0.043700
     29 H14         12.0290     0.2540    20.6410 hc         1 6KJ       0.043700
     30 H15         12.3310     1.4520    19.3660 hc         1 6KJ       0.043700
     31 H16         12.4790     3.4860    22.5840 hc         1 6KJ       0.043700
     32 H17         11.6300     3.3090    21.0430 hc         1 6KJ       0.043700
     33 H18         11.3860     2.1080    22.3220 hc         1 6KJ       0.043700
     34 H19         14.7490     3.5800    21.3850 hc         1 6KJ       0.043700
     35 H20         15.2930     2.2120    20.3850 hc         1 6KJ       0.043700
     36 H21         14.0580     3.3320    19.7770 hc         1 6KJ       0.043700
@<TRIPOS>BOND
     1     1     2 1   
     2     2     3 1   
     3     2     4 1   
     4     4     5 1   
     5     4     6 1   
     6     4    18 1   
     7     5    19 1   
     8     5    20 1   
     9     6     7 1   
    10     6    21 1   
    11     6    22 1   
    12     7     8 1   
    13     7    23 1   
    14     7    24 1   
    15     8     9 2   
    16     8    25 1   
    17     9    10 1   
    18    10    11 2   
    19    10    12 1   
    20    11    26 1   
    21    12    13 1   
    22    12    27 1   
    23    13    14 1   
    24    14    15 1   
    25    14    16 1   
    26    14    17 1   
    27    15    28 1   
    28    15    29 1   
    29    15    30 1   
    30    16    31 1   
    31    16    32 1   
    32    16    33 1   
    33    17    34 1   
    34    17    35 1   
    35    17    36 1   
@<TRIPOS>SUBSTRUCTURE
     1 6KJ         1 TEMP              0 ****  ****    0 ROOT
