@<TRIPOS>MOLECULE
6KK
   91    96     1     0     0
SMALL
No Charge or Current Charge


@<TRIPOS>ATOM
      1 C2          -7.4780    -1.7730     1.1780 ca         1 6KK       0.195100
      2 C3          -6.5520    -2.7890     0.8610 ca         1 6KK      -0.200000
      3 C4          -5.1740    -2.5110     0.8520 ca         1 6KK       0.026000
      4 C5          -4.7190    -1.2150     1.1640 ca         1 6KK      -0.333500
      5 C6          -5.6400    -0.2000     1.4790 ca         1 6KK       0.026000
      6 C7          -7.0150    -0.4840     1.4850 ca         1 6KK      -0.200000
      7 S8          -2.9640    -0.8320     1.1350 sy         1 6KK       1.196600
      8 O9          -2.6720    -0.0870     2.3640 o          1 6KK      -0.541000
      9 O10         -2.1850    -2.0080     0.7360 o          1 6KK      -0.541000
     10 N11         -2.8710     0.3070    -0.1280 n3         1 6KK      -0.792500
     11 C12         -3.3710    -0.1890    -1.4350 c3         1 6KK       0.234800
     12 C13         -3.7390     0.9170    -2.4630 c3         1 6KK      -0.079700
     13 C14         -4.2020     0.2950    -3.8000 c3         1 6KK      -0.088600
     14 C15         -4.8020     1.8980    -1.9110 c3         1 6KK      -0.088600
     15 C16         -1.6130     1.1090    -0.1640 c3         1 6KK       0.207800
     16 C17         -0.3020     0.3880    -0.6360 c3         1 6KK       0.123300
     17 O18         -0.2890     0.1900    -2.0710 oh         1 6KK      -0.648000
     18 C19          0.9950     1.1360    -0.1860 c3         1 6KK       0.101700
     19 N20          2.1650     0.2820    -0.4170 ns         1 6KK      -0.490900
     20 C21          2.5990    -0.6910     0.4350 c          1 6KK       0.641100
     21 O22          2.0810    -0.9600     1.5080 o          1 6KK      -0.535000
     22 O23          3.7060    -1.2770    -0.1060 os         1 6KK      -0.454100
     23 C24          4.2650    -2.3670     0.6790 c5         1 6KK       0.165300
     24 C25          3.3700    -3.6340     0.5850 c5         1 6KK       0.127600
     25 O26          4.2910    -4.6930     0.9210 os         1 6KK      -0.443000
     26 C27          5.5440    -4.4200     0.2620 c5         1 6KK       0.375300
     27 O28          5.5100    -5.0440    -1.0370 os         1 6KK      -0.463000
     28 C29          6.1390    -4.1380    -1.9570 c5         1 6KK       0.154600
     29 C30          5.4770    -2.8010    -1.5790 c5         1 6KK      -0.103400
     30 C31          5.5760    -2.8790    -0.0110 c5         1 6KK      -0.132700
     31 C32          1.1940     2.5390    -0.8440 c3         1 6KK      -0.084400
     32 C51          2.1570     3.5680    -0.1440 c6         1 6KK      -0.039000
     33 C52          2.1900     4.8730    -1.0100 c6         1 6KK      -0.065067
     34 C53          3.1080     5.9510    -0.3660 c6         1 6KK      -0.057700
     35 C54          4.5530     5.3910    -0.2510 c6         1 6KK      -0.068733
     36 C55          4.5460     4.1130     0.6340 c6         1 6KK      -0.057700
     37 C56          4.0080     4.4670     2.0500 c6         1 6KK      -0.068733
     38 C57          2.5600     5.0250     1.9350 c6         1 6KK      -0.057700
     39 C58          1.6400     3.9490     1.2860 c6         1 6KK      -0.065067
     40 C59          3.6250     3.0360    -0.0110 c6         1 6KK      -0.065067
     41 C60          2.5700     6.3030     1.0490 c6         1 6KK      -0.068733
     42 O39         -8.8410    -1.9880     1.2000 os         1 6KK      -0.334100
     43 C40         -9.4200    -3.2700     0.8990 c3         1 6KK       0.145900
     44 H1          -6.8790    -3.7950     0.6170 ha         1 6KK       0.127500
     45 H2          -4.4700    -3.3030     0.6010 ha         1 6KK       0.133500
     46 H3          -5.2940     0.8070     1.7100 ha         1 6KK       0.133500
     47 H4          -7.7270     0.3000     1.7260 ha         1 6KK       0.127500
     48 H5          -2.6380    -0.8700    -1.8860 h1         1 6KK       0.057700
     49 H6          -4.2820    -0.7840    -1.2920 h1         1 6KK       0.057700
     50 H7          -2.8360     1.4960    -2.6860 hc         1 6KK       0.043700
     51 H8          -5.1150    -0.2980    -3.6610 hc         1 6KK       0.036200
     52 H9          -4.4110     1.0770    -4.5400 hc         1 6KK       0.036200
     53 H10         -3.4260    -0.3610    -4.2120 hc         1 6KK       0.036200
     54 H11         -4.4370     2.4070    -1.0110 hc         1 6KK       0.036200
     55 H12         -5.0440     2.6660    -2.6550 hc         1 6KK       0.036200
     56 H13         -5.7260     1.3660    -1.6530 hc         1 6KK       0.036200
     57 H14         -1.7660     1.9910    -0.7980 h1         1 6KK       0.059200
     58 H15         -1.4240     1.5180     0.8380 h1         1 6KK       0.059200
     59 H16         -0.2750    -0.5880    -0.1360 h1         1 6KK       0.103700
     60 H17         -0.1990     1.0710    -2.4910 ho         1 6KK       0.434000
     61 H18          0.9030     1.2810     0.8980 h1         1 6KK       0.094700
     62 H19          2.6900     0.3830    -1.2750 hn         1 6KK       0.331500
     63 H20          4.4430    -2.0560     1.7190 h1         1 6KK       0.074700
     64 H21          2.5340    -3.6250     1.2980 h1         1 6KK       0.071700
     65 H22          2.9770    -3.7960    -0.4280 h1         1 6KK       0.071700
     66 H23          6.4020    -4.7700     0.8530 h2         1 6KK       0.086700
     67 H24          7.2250    -4.1320    -1.7850 h1         1 6KK       0.048700
     68 H25          5.9360    -4.4440    -2.9930 h1         1 6KK       0.048700
     69 H26          6.0070    -1.9360    -1.9940 hc         1 6KK       0.064700
     70 H27          4.4510    -2.7750    -1.9640 hc         1 6KK       0.064700
     71 H28          6.4820    -2.4080     0.3850 hc         1 6KK       0.077700
     72 H29          1.5240     2.3850    -1.8790 hc         1 6KK       0.041700
     73 H30          0.2140     3.0210    -0.9280 hc         1 6KK       0.041700
     74 H31          2.5470     4.6460    -2.0250 hc         1 6KK       0.040533
     75 H32          1.1750     5.2790    -1.1280 hc         1 6KK       0.040533
     76 H33          3.1120     6.8530    -0.9930 hc         1 6KK       0.049700
     77 H34          4.9520     5.1600    -1.2490 hc         1 6KK       0.040200
     78 H35          5.2200     6.1490     0.1820 hc         1 6KK       0.040200
     79 H36          5.5680     3.7190     0.7170 hc         1 6KK       0.049700
     80 H37          4.0210     3.5770     2.6940 hc         1 6KK       0.040200
     81 H38          4.6630     5.2070     2.5310 hc         1 6KK       0.040200
     82 H39          2.1820     5.2760     2.9360 hc         1 6KK       0.049700
     83 H40          0.6090     4.3260     1.2310 hc         1 6KK       0.040533
     84 H41          1.6110     3.0670     1.9380 hc         1 6KK       0.040533
     85 H42          3.6570     2.1370     0.6170 hc         1 6KK       0.040533
     86 H43          4.0170     2.7460    -0.9960 hc         1 6KK       0.040533
     87 H44          3.1950     7.0800     1.5100 hc         1 6KK       0.040200
     88 H45          1.5560     6.7220     0.9770 hc         1 6KK       0.040200
     89 H46        -10.5130    -3.2210     0.9740 h1         1 6KK       0.046367
     90 H47         -9.1630    -3.5850    -0.1210 h1         1 6KK       0.046367
     91 H48         -9.0650    -4.0340     1.6030 h1         1 6KK       0.046367
@<TRIPOS>BOND
     1     1     2 ar  
     2     1     6 ar  
     3     1    42 1   
     4     2     3 ar  
     5     2    44 1   
     6     3     4 ar  
     7     3    45 1   
     8     4     5 ar  
     9     4     7 1   
    10     5     6 ar  
    11     5    46 1   
    12     6    47 1   
    13     7     8 2   
    14     7     9 2   
    15     7    10 1   
    16    10    11 1   
    17    10    15 1   
    18    11    12 1   
    19    11    48 1   
    20    11    49 1   
    21    12    13 1   
    22    12    14 1   
    23    12    50 1   
    24    13    51 1   
    25    13    52 1   
    26    13    53 1   
    27    14    54 1   
    28    14    55 1   
    29    14    56 1   
    30    15    16 1   
    31    15    57 1   
    32    15    58 1   
    33    16    17 1   
    34    16    18 1   
    35    16    59 1   
    36    17    60 1   
    37    18    19 1   
    38    18    31 1   
    39    18    61 1   
    40    19    20 1   
    41    19    62 1   
    42    20    21 2   
    43    20    22 1   
    44    22    23 1   
    45    23    24 1   
    46    23    30 1   
    47    23    63 1   
    48    24    25 1   
    49    24    64 1   
    50    24    65 1   
    51    25    26 1   
    52    26    27 1   
    53    26    30 1   
    54    26    66 1   
    55    27    28 1   
    56    28    29 1   
    57    28    67 1   
    58    28    68 1   
    59    29    30 1   
    60    29    69 1   
    61    29    70 1   
    62    30    71 1   
    63    31    32 1   
    64    31    72 1   
    65    31    73 1   
    66    32    33 1   
    67    32    39 1   
    68    32    40 1   
    69    33    34 1   
    70    33    74 1   
    71    33    75 1   
    72    34    35 1   
    73    34    41 1   
    74    34    76 1   
    75    35    36 1   
    76    35    77 1   
    77    35    78 1   
    78    36    37 1   
    79    36    40 1   
    80    36    79 1   
    81    37    38 1   
    82    37    80 1   
    83    37    81 1   
    84    38    39 1   
    85    38    41 1   
    86    38    82 1   
    87    39    83 1   
    88    39    84 1   
    89    40    85 1   
    90    40    86 1   
    91    41    87 1   
    92    41    88 1   
    93    42    43 1   
    94    43    89 1   
    95    43    90 1   
    96    43    91 1   
@<TRIPOS>SUBSTRUCTURE
     1 6KK         1 TEMP              0 ****  ****    0 ROOT
