@<TRIPOS>MOLECULE
6KK
   91    96     1     0     0
SMALL
bcc


@<TRIPOS>ATOM
      1 C2          -7.0930    -0.8080     1.5500 ca         1 6KK       0.195100
      2 C3          -7.0150    -1.7310     0.5080 ca         1 6KK      -0.218000
      3 C4          -5.7760    -2.0870    -0.0070 ca         1 6KK       0.008000
      4 C5          -4.6200    -1.5280     0.5110 ca         1 6KK      -0.333500
      5 C6          -4.6910    -0.6140     1.5610 ca         1 6KK       0.008000
      6 C7          -5.9170    -0.2570     2.0760 ca         1 6KK      -0.218000
      7 S8          -3.0450    -1.9060    -0.1840 sy         1 6KK       1.338200
      8 O9          -2.0740    -1.9580     0.9010 o          1 6KK      -0.611800
      9 O10         -3.2160    -3.0730    -1.0380 o          1 6KK      -0.611800
     10 N11         -2.6530    -0.6100    -1.1090 n3         1 6KK      -0.792500
     11 C12         -3.3170    -0.4360    -2.3990 c3         1 6KK       0.234800
     12 C13         -3.9350     0.9450    -2.6170 c3         1 6KK      -0.079700
     13 C14         -4.6350     0.9450    -3.9730 c3         1 6KK      -0.088600
     14 C15         -4.8950     1.3350    -1.5020 c3         1 6KK      -0.088600
     15 C16         -1.5880     0.2880    -0.6930 c3         1 6KK       0.207800
     16 C17         -0.1910    -0.1790    -1.0960 c3         1 6KK       0.100100
     17 O18         -0.0370    -0.2850    -2.4930 oh         1 6KK      -0.585800
     18 C19          0.9080     0.6770    -0.4400 c3         1 6KK       0.101700
     19 N20          2.1890     0.0210    -0.5830 ns         1 6KK      -0.557900
     20 C21          2.7600    -0.6940     0.3990 c          1 6KK       0.757100
     21 O22          2.3090    -0.8540     1.5150 o          1 6KK      -0.584000
     22 O23          3.9290    -1.2120    -0.0100 os         1 6KK      -0.430900
     23 C24          4.6900    -1.9400     0.9370 c5         1 6KK       0.142100
     24 C25          4.1460    -3.3290     1.2680 c5         1 6KK       0.104400
     25 O26          5.2800    -4.0180     1.7610 os         1 6KK      -0.396600
     26 C27          6.4370    -3.5560     1.1160 c5         1 6KK       0.328900
     27 O28          6.8860    -4.4870     0.1700 os         1 6KK      -0.416600
     28 C29          7.0710    -3.8500    -1.0870 c5         1 6KK       0.131400
     29 C30          6.0610    -2.7170    -1.1080 c5         1 6KK      -0.103400
     30 C31          6.0580    -2.2730     0.3570 c5         1 6KK      -0.132700
     31 C32          0.9510     2.1080    -0.9790 c3         1 6KK      -0.084400
     32 C51          1.8180     3.1400    -0.2360 c6         1 6KK      -0.039000
     33 C52          1.3830     4.5350    -0.7200 c6         1 6KK      -0.065067
     34 C53          2.1790     5.6410    -0.0290 c6         1 6KK      -0.057700
     35 C54          3.6670     5.4620    -0.3340 c6         1 6KK      -0.068733
     36 C55          4.1220     4.0900     0.1620 c6         1 6KK      -0.057700
     37 C56          3.9000     3.9970     1.6740 c6         1 6KK      -0.068733
     38 C57          2.4130     4.1810     1.9820 c6         1 6KK      -0.057700
     39 C58          1.6160     3.0750     1.2840 c6         1 6KK      -0.065067
     40 C59          3.3180     2.9890    -0.5370 c6         1 6KK      -0.065067
     41 C60          1.9540     5.5520     1.4820 c6         1 6KK      -0.068733
     42 O39         -8.2350    -0.3950     2.1080 os         1 6KK      -0.310900
     43 C40         -9.4610    -0.9000     1.6090 c3         1 6KK       0.122700
     44 H1          -7.9000    -2.1830     0.0840 ha         1 6KK       0.145500
     45 H2          -5.7320    -2.8060    -0.8130 ha         1 6KK       0.151500
     46 H3          -3.7950    -0.1750     1.9810 ha         1 6KK       0.151500
     47 H4          -5.9790     0.4520     2.8910 ha         1 6KK       0.145500
     48 H5          -2.6130    -0.6560    -3.2040 h1         1 6KK       0.057700
     49 H6          -4.1180    -1.1740    -2.4760 h1         1 6KK       0.057700
     50 H7          -3.1370     1.6940    -2.6680 hc         1 6KK       0.043700
     51 H8          -5.4720     0.2430    -3.9830 hc         1 6KK       0.036200
     52 H9          -5.0290     1.9350    -4.2060 hc         1 6KK       0.036200
     53 H10         -3.9530     0.6630    -4.7780 hc         1 6KK       0.036200
     54 H11         -4.3970     1.4060    -0.5350 hc         1 6KK       0.036200
     55 H12         -5.3500     2.3050    -1.7100 hc         1 6KK       0.036200
     56 H13         -5.7000     0.6030    -1.4040 hc         1 6KK       0.036200
     57 H14         -1.8120     1.2670    -1.1200 h1         1 6KK       0.059200
     58 H15         -1.6220     0.4360     0.3880 h1         1 6KK       0.059200
     59 H16         -0.0600    -1.1950    -0.7130 h1         1 6KK       0.103700
     60 H17         -0.2400     0.5630    -2.9010 ho         1 6KK       0.395000
     61 H18          0.6810     0.7020     0.6260 h1         1 6KK       0.094700
     62 H19          2.6420     0.0540    -1.4830 hn         1 6KK       0.331500
     63 H20          4.8050    -1.3580     1.8560 h1         1 6KK       0.074700
     64 H21          3.3810    -3.3250     2.0420 h1         1 6KK       0.071700
     65 H22          3.7280    -3.8060     0.3710 h1         1 6KK       0.071700
     66 H23          7.2050    -3.4170     1.8840 h2         1 6KK       0.086700
     67 H24          8.0940    -3.4670    -1.1770 h1         1 6KK       0.048700
     68 H25          6.9150    -4.5850    -1.8770 h1         1 6KK       0.048700
     69 H26          6.3450    -1.9160    -1.7890 hc         1 6KK       0.064700
     70 H27          5.0840    -3.0900    -1.4220 hc         1 6KK       0.064700
     71 H28          6.7850    -1.4770     0.5230 hc         1 6KK       0.077700
     72 H29          1.2580     2.1000    -2.0320 hc         1 6KK       0.041700
     73 H30         -0.0760     2.4870    -0.9710 hc         1 6KK       0.041700
     74 H31          1.5130     4.6020    -1.8070 hc         1 6KK       0.040533
     75 H32          0.3130     4.6700    -0.5270 hc         1 6KK       0.040533
     76 H33          1.8400     6.6140    -0.3970 hc         1 6KK       0.049700
     77 H34          3.8440     5.5530    -1.4110 hc         1 6KK       0.040200
     78 H35          4.2500     6.2530     0.1490 hc         1 6KK       0.040200
     79 H36          5.1850     3.9510    -0.0610 hc         1 6KK       0.049700
     80 H37          4.2440     3.0270     2.0490 hc         1 6KK       0.040200
     81 H38          4.4900     4.7630     2.1880 hc         1 6KK       0.040200
     82 H39          2.2500     4.1120     3.0620 hc         1 6KK       0.049700
     83 H40          0.5500     3.1660     1.5250 hc         1 6KK       0.040533
     84 H41          1.9440     2.1040     1.6720 hc         1 6KK       0.040533
     85 H42          3.6840     2.0140    -0.2070 hc         1 6KK       0.040533
     86 H43          3.4810     3.0360    -1.6200 hc         1 6KK       0.040533
     87 H44          2.5100     6.3450     1.9930 hc         1 6KK       0.040200
     88 H45          0.8960     5.7060     1.7160 hc         1 6KK       0.040200
     89 H46        -10.2470    -0.4280     2.1920 h1         1 6KK       0.046367
     90 H47         -9.6030    -0.6500     0.5560 h1         1 6KK       0.046367
     91 H48         -9.5330    -1.9840     1.7310 h1         1 6KK       0.046367
@<TRIPOS>BOND
     1     1     2 ar  
     2     1     6 ar  
     3     1    42 1   
     4     2     3 ar  
     5     2    44 1   
     6     3     4 ar  
     7     3    45 1   
     8     4     5 ar  
     9     4     7 1   
    10     5     6 ar  
    11     5    46 1   
    12     6    47 1   
    13     7     8 2   
    14     7     9 2   
    15     7    10 1   
    16    10    11 1   
    17    10    15 1   
    18    11    12 1   
    19    11    48 1   
    20    11    49 1   
    21    12    13 1   
    22    12    14 1   
    23    12    50 1   
    24    13    51 1   
    25    13    52 1   
    26    13    53 1   
    27    14    54 1   
    28    14    55 1   
    29    14    56 1   
    30    15    16 1   
    31    15    57 1   
    32    15    58 1   
    33    16    17 1   
    34    16    18 1   
    35    16    59 1   
    36    17    60 1   
    37    18    19 1   
    38    18    31 1   
    39    18    61 1   
    40    19    20 1   
    41    19    62 1   
    42    20    21 2   
    43    20    22 1   
    44    22    23 1   
    45    23    24 1   
    46    23    30 1   
    47    23    63 1   
    48    24    25 1   
    49    24    64 1   
    50    24    65 1   
    51    25    26 1   
    52    26    27 1   
    53    26    30 1   
    54    26    66 1   
    55    27    28 1   
    56    28    29 1   
    57    28    67 1   
    58    28    68 1   
    59    29    30 1   
    60    29    69 1   
    61    29    70 1   
    62    30    71 1   
    63    31    32 1   
    64    31    72 1   
    65    31    73 1   
    66    32    33 1   
    67    32    39 1   
    68    32    40 1   
    69    33    34 1   
    70    33    74 1   
    71    33    75 1   
    72    34    35 1   
    73    34    41 1   
    74    34    76 1   
    75    35    36 1   
    76    35    77 1   
    77    35    78 1   
    78    36    37 1   
    79    36    40 1   
    80    36    79 1   
    81    37    38 1   
    82    37    80 1   
    83    37    81 1   
    84    38    39 1   
    85    38    41 1   
    86    38    82 1   
    87    39    83 1   
    88    39    84 1   
    89    40    85 1   
    90    40    86 1   
    91    41    87 1   
    92    41    88 1   
    93    42    43 1   
    94    43    89 1   
    95    43    90 1   
    96    43    91 1   
@<TRIPOS>SUBSTRUCTURE
     1 6KK         1 TEMP              0 ****  ****    0 ROOT
