@<TRIPOS>MOLECULE
6KL
   48    48     1     0     0
SMALL
No Charge or Current Charge


@<TRIPOS>ATOM
      1 C1          -0.1070     2.9070     1.0900 c          1 6KL       0.726000
      2 O1          -0.1070     4.1330     1.1820 o          1 6KL      -0.692000
      3 O2          -0.5280     3.3520    -1.3560 os         1 6KL      -0.410000
      4 C2          -0.1300     2.3020    -0.4170 c6         1 6KL       0.267000
      5 C3           1.2980     1.7820    -0.7790 c6         1 6KL      -0.114400
      6 C4           1.6530     0.4970     0.0060 c6         1 6KL       0.092700
      7 O3          -0.6960     2.2830     1.9660 o          1 6KL      -0.692000
      8 C11          1.8240    -4.0650     0.8910 c3         1 6KL      -0.181100
      9 C10          1.6040    -2.9260    -0.0960 c          1 6KL       0.599100
     10 O10          2.0250    -2.9600    -1.2430 o          1 6KL      -0.624100
     11 N5           0.8890    -1.8620     0.4040 ns         1 6KL      -0.491900
     12 C5           0.5940    -0.6020    -0.3160 c6         1 6KL       0.054700
     13 N4           3.0180     0.0720    -0.3500 ns         1 6KL      -0.490900
     14 CA4          3.9140    -0.5430     0.4940 c          1 6KL       0.601100
     15 OA4          3.6760    -0.7400     1.6770 o          1 6KL      -0.620100
     16 CM4          5.2280    -0.9530    -0.1580 c3         1 6KL      -0.181100
     17 CM2         -0.5860     3.0710    -2.7700 c3         1 6KL       0.155900
     18 O6          -1.0840     1.2070    -0.6290 os         1 6KL      -0.511000
     19 C6          -0.8220    -0.0620     0.0500 c6         1 6KL       0.168300
     20 C7          -1.9690    -1.0280    -0.4100 c3         1 6KL       0.147300
     21 O7          -2.2340    -0.7820    -1.8040 oh         1 6KL      -0.725000
     22 C8          -3.2840    -0.8600     0.4140 c3         1 6KL       0.136300
     23 O8          -3.0480    -1.1730     1.7980 oh         1 6KL      -0.614000
     24 C9          -4.4390    -1.7740    -0.0790 c3         1 6KL       0.124600
     25 O9          -5.5630    -1.6750     0.8150 oh         1 6KL      -0.705000
     26 H2           1.3830     1.5590    -1.8490 hc         1 6KL       0.041200
     27 H3           2.0370     2.5650    -0.5630 hc         1 6KL       0.041200
     28 H4           1.6250     0.7140     1.0860 h1         1 6KL       0.129700
     29 H5           2.3880    -4.8980     0.4570 hc         1 6KL       0.053700
     30 H6           2.3160    -3.6690     1.7870 hc         1 6KL       0.053700
     31 H7           0.8550    -4.3920     1.2830 hc         1 6KL       0.053700
     32 H8           0.6070    -1.9400     1.3750 hn         1 6KL       0.321500
     33 H9           0.6160    -0.8050    -1.3970 h1         1 6KL       0.082700
     34 H10          3.3160     0.1790    -1.3120 hn         1 6KL       0.301500
     35 H11          5.0120    -1.6000    -1.0160 hc         1 6KL       0.051033
     36 H12          5.6780    -0.0760    -0.6370 hc         1 6KL       0.051033
     37 H13          5.9190    -1.4300     0.5450 hc         1 6KL       0.051033
     38 H14         -1.1780     2.1710    -2.9760 h1         1 6KL       0.010033
     39 H15         -1.0580     3.9100    -3.2960 h1         1 6KL       0.010033
     40 H16          0.4170     2.9410    -3.1940 h1         1 6KL       0.010033
     41 H17         -0.8840     0.0600     1.1390 h1         1 6KL       0.085700
     42 H18         -1.6320    -2.0650    -0.2730 h1         1 6KL       0.057700
     43 H19         -1.9440     0.1590    -1.9130 ho         1 6KL       0.518000
     44 H20         -3.6160     0.1840     0.3140 h1         1 6KL       0.113700
     45 H21         -3.9370    -1.4200     2.1410 ho         1 6KL       0.419000
     46 H22         -4.7360    -1.4720    -1.0920 h1         1 6KL       0.018700
     47 H23         -4.0850    -2.8130    -0.1300 h1         1 6KL       0.018700
     48 H24         -6.2910    -2.2140     0.4260 ho         1 6KL       0.486000
@<TRIPOS>BOND
     1     1     2 1   
     2     1     4 1   
     3     1     7 1   
     4     3     4 1   
     5     3    17 1   
     6     4     5 1   
     7     4    18 1   
     8     5     6 1   
     9     5    26 1   
    10     5    27 1   
    11     6    12 1   
    12     6    13 1   
    13     6    28 1   
    14     8     9 1   
    15     8    29 1   
    16     8    30 1   
    17     8    31 1   
    18     9    10 2   
    19     9    11 1   
    20    11    12 1   
    21    11    32 1   
    22    12    19 1   
    23    12    33 1   
    24    13    14 1   
    25    13    34 1   
    26    14    15 2   
    27    14    16 1   
    28    16    35 1   
    29    16    36 1   
    30    16    37 1   
    31    17    38 1   
    32    17    39 1   
    33    17    40 1   
    34    18    19 1   
    35    19    20 1   
    36    19    41 1   
    37    20    21 1   
    38    20    22 1   
    39    20    42 1   
    40    21    43 1   
    41    22    23 1   
    42    22    24 1   
    43    22    44 1   
    44    23    45 1   
    45    24    25 1   
    46    24    46 1   
    47    24    47 1   
    48    25    48 1   
@<TRIPOS>SUBSTRUCTURE
     1 6KL         1 TEMP              0 ****  ****    0 ROOT
