@<TRIPOS>MOLECULE
6KL
   48    48     1     0     0
SMALL
abcg2


@<TRIPOS>ATOM
      1 C1          -0.4940     2.7810     1.0690 c          1 6KL       0.726000
      2 O1           0.3150     2.4290     1.9510 o          1 6KL      -0.692000
      3 O2          -0.6770     3.1940    -1.2570 os         1 6KL      -0.410000
      4 C2          -0.2390     2.2190    -0.3690 c6         1 6KL       0.267000
      5 C3           1.2240     1.8470    -0.6330 c6         1 6KL      -0.114400
      6 C4           1.6630     0.5510     0.0380 c6         1 6KL       0.092700
      7 O3          -1.4980     3.4900     1.2130 o          1 6KL      -0.692000
      8 C11          1.7800    -3.9970     0.8930 c3         1 6KL      -0.181100
      9 C10          1.3820    -2.9160    -0.0810 c          1 6KL       0.599100
     10 O10          1.3780    -3.1070    -1.2880 o          1 6KL      -0.624100
     11 N5           1.0060    -1.7530     0.4880 ns         1 6KL      -0.491900
     12 C5           0.6480    -0.5620    -0.2400 c6         1 6KL       0.054700
     13 N4           2.9740     0.1580    -0.4270 ns         1 6KL      -0.490900
     14 CA4          3.9390    -0.3500     0.3610 c          1 6KL       0.601100
     15 OA4          3.8400    -0.4390     1.5780 o          1 6KL      -0.620100
     16 CM4          5.1790    -0.8130    -0.3640 c3         1 6KL      -0.181100
     17 CM2         -0.8350     2.8460    -2.6160 c3         1 6KL       0.155900
     18 O6          -1.0760     1.0920    -0.5640 os         1 6KL      -0.511000
     19 C6          -0.7610    -0.0920     0.1330 c6         1 6KL       0.168300
     20 C7          -1.8370    -1.1030    -0.2610 c3         1 6KL       0.147300
     21 O7          -1.8620    -1.3010    -1.6560 oh         1 6KL      -0.725000
     22 C8          -3.2250    -0.7070     0.2780 c3         1 6KL       0.136300
     23 O8          -3.1860    -0.5040     1.6720 oh         1 6KL      -0.614000
     24 C9          -4.2680    -1.7440    -0.1080 c3         1 6KL       0.124600
     25 O9          -5.5300    -1.3090     0.3430 oh         1 6KL      -0.705000
     26 H2           1.3770     1.7320    -1.7110 hc         1 6KL       0.041200
     27 H3           1.8700     2.6660    -0.3090 hc         1 6KL       0.041200
     28 H4           1.7280     0.7140     1.1120 h1         1 6KL       0.129700
     29 H5           2.6120    -4.5700     0.4870 hc         1 6KL       0.053700
     30 H6           2.0610    -3.6150     1.8730 hc         1 6KL       0.053700
     31 H7           0.9430    -4.6840     1.0290 hc         1 6KL       0.053700
     32 H8           1.1190    -1.6610     1.4850 hn         1 6KL       0.321500
     33 H9           0.6710    -0.8050    -1.3040 h1         1 6KL       0.082700
     34 H10          3.1210     0.1430    -1.4240 hn         1 6KL       0.301500
     35 H11          5.1640    -0.6120    -1.4330 hc         1 6KL       0.051033
     36 H12          6.0560    -0.3330     0.0680 hc         1 6KL       0.051033
     37 H13          5.2960    -1.8880    -0.2200 hc         1 6KL       0.051033
     38 H14         -1.6830     2.1780    -2.7830 h1         1 6KL       0.010033
     39 H15         -1.0240     3.7750    -3.1520 h1         1 6KL       0.010033
     40 H16          0.0520     2.3830    -3.0580 h1         1 6KL       0.010033
     41 H17         -0.8060     0.0620     1.2180 h1         1 6KL       0.085700
     42 H18         -1.5670    -2.0700     0.1790 h1         1 6KL       0.057700
     43 H19         -1.9580    -0.4380    -2.0750 ho         1 6KL       0.518000
     44 H20         -3.5100     0.2580    -0.1540 h1         1 6KL       0.113700
     45 H21         -3.0010    -1.3470     2.1000 ho         1 6KL       0.419000
     46 H22         -4.2540    -1.8830    -1.1940 h1         1 6KL       0.018700
     47 H23         -3.9900    -2.7120     0.3400 h1         1 6KL       0.018700
     48 H24         -6.1840    -1.9540     0.0610 ho         1 6KL       0.486000
@<TRIPOS>BOND
     1     1     2 1   
     2     1     4 1   
     3     1     7 1   
     4     3     4 1   
     5     3    17 1   
     6     4     5 1   
     7     4    18 1   
     8     5     6 1   
     9     5    26 1   
    10     5    27 1   
    11     6    12 1   
    12     6    13 1   
    13     6    28 1   
    14     8     9 1   
    15     8    29 1   
    16     8    30 1   
    17     8    31 1   
    18     9    10 2   
    19     9    11 1   
    20    11    12 1   
    21    11    32 1   
    22    12    19 1   
    23    12    33 1   
    24    13    14 1   
    25    13    34 1   
    26    14    15 2   
    27    14    16 1   
    28    16    35 1   
    29    16    36 1   
    30    16    37 1   
    31    17    38 1   
    32    17    39 1   
    33    17    40 1   
    34    18    19 1   
    35    19    20 1   
    36    19    41 1   
    37    20    21 1   
    38    20    22 1   
    39    20    42 1   
    40    21    43 1   
    41    22    23 1   
    42    22    24 1   
    43    22    44 1   
    44    23    45 1   
    45    24    25 1   
    46    24    46 1   
    47    24    47 1   
    48    25    48 1   
@<TRIPOS>SUBSTRUCTURE
     1 6KL         1 TEMP              0 ****  ****    0 ROOT
