@<TRIPOS>MOLECULE
6KM
   21    20     1     0     0
SMALL
bcc


@<TRIPOS>ATOM
      1 N            8.8170     0.9680     7.6310 n8         1 6KM      -0.892800
      2 CA           9.6790     0.1950     8.5050 c3         1 6KM       0.016500
      3 CA1         12.7200     2.0650     9.0340 c          1 6KM       0.617700
      4 CA2         13.1910     0.7150     9.5050 c3         1 6KM      -0.189400
      5 CA3         13.4810     0.7510    11.0070 c3         1 6KM      -0.078100
      6 C            8.9850    -1.1130     8.9870 c          1 6KM       0.932600
      7 O            9.5400    -1.7030     9.9320 o          1 6KM      -0.826300
      8 OA1         13.4640     2.9030     8.5870 o          1 6KM      -0.535100
      9 CB          10.0970     1.0350     9.7050 c3         1 6KM       0.073700
     10 SG          11.0230     2.5370     9.2430 ss         1 6KM      -0.391700
     11 H1           9.3690     1.4960     6.9690 hn         1 6KM       0.338300
     12 H2           8.2510     0.3180     7.1010 hn         1 6KM       0.338300
     13 H4          10.5970    -0.1390     7.9930 h1         1 6KM      -0.000300
     14 H5          12.4640    -0.0650     9.2810 hc         1 6KM       0.074700
     15 H6          14.1040     0.4790     8.9570 hc         1 6KM       0.074700
     16 H7          13.8550    -0.2160    11.3360 hc         1 6KM       0.037367
     17 H8          14.2360     1.5020    11.2400 hc         1 6KM       0.037367
     18 H9          12.5880     0.9820    11.5870 hc         1 6KM       0.037367
     19 H11          9.2110     1.4170    10.2150 h1         1 6KM       0.080200
     20 H12         10.6660     0.4600    10.4310 h1         1 6KM       0.080200
     21 O1           7.9660    -1.4700     8.3670 o          1 6KM      -0.826300
@<TRIPOS>BOND
     1     1     2 1   
     2     1    11 1   
     3     1    12 1   
     4     2     6 1   
     5     2     9 1   
     6     2    13 1   
     7     3     4 1   
     8     3     8 2   
     9     3    10 1   
    10     4     5 1   
    11     4    14 1   
    12     4    15 1   
    13     5    16 1   
    14     5    17 1   
    15     5    18 1   
    16     6     7 1   
    17     6    21 1   
    18     9    10 1   
    19     9    19 1   
    20     9    20 1   
@<TRIPOS>SUBSTRUCTURE
     1 6KM         1 TEMP              0 ****  ****    0 ROOT
