@<TRIPOS>MOLECULE
6KN
   30    32     1     0     0
SMALL
abcg2


@<TRIPOS>ATOM
      1 C5          13.9750    30.5530    18.7390 ca         1 6KN       0.326900
      2 C6          15.2140    30.4570    18.1270 ca         1 6KN      -0.148000
      3 C7          15.4700    31.1890    16.9660 cp         1 6KN      -0.009000
      4 C8          16.7980    31.0790    16.3180 cp         1 6KN       0.035000
      5 C10         18.8620    32.0670    15.4800 ca         1 6KN      -0.153300
      6 C17         17.3130    29.8200    15.9410 ca         1 6KN      -0.199900
      7 C2          14.4420    31.9910    16.4470 ca         1 6KN      -0.107300
      8 C3          13.2320    32.0000    17.1430 ca         1 6KN       0.329900
      9 N4          12.9860    31.3120    18.2600 nb         1 6KN      -0.653000
     10 C9          17.5890    32.1860    16.0780 ca         1 6KN      -0.097000
     11 C11         19.3880    30.8500    15.0970 ca         1 6KN      -0.070000
     12 C12         18.5890    29.7300    15.3370 ca         1 6KN      -0.044200
     13 N13         18.7900    28.4110    15.0780 na         1 6KN      -0.068400
     14 N15         17.7420    27.6510    15.4670 nc         1 6KN      -0.498100
     15 C16         16.8480    28.4750    15.9830 cd         1 6KN       0.356800
     16 C18         19.6640    33.3210    15.2930 c3         1 6KN       0.343300
     17 F19         20.0540    33.8520    16.4800 f          1 6KN      -0.111333
     18 F20         20.7850    33.1260    14.5720 f          1 6KN      -0.111333
     19 F21         18.9590    34.2910    14.6630 f          1 6KN      -0.111333
     20 H1          13.7690    29.9970    19.6470 h4         1 6KN       0.023100
     21 H2          15.9820    29.8280    18.5560 ha         1 6KN       0.128000
     22 H3          15.1080    32.2420    14.4130 hc         1 6KN       0.049367
     23 H4          13.5930    33.0710    14.8060 hc         1 6KN       0.049367
     24 H5          15.1340    33.7210    15.3600 hc         1 6KN       0.049367
     25 H6          12.4120    32.5990    16.7590 h4         1 6KN       0.020100
     26 H7          17.2350    33.1670    16.3640 ha         1 6KN       0.135000
     27 H8          20.3610    30.7660    14.6370 ha         1 6KN       0.140000
     28 H9          19.5930    27.9770    14.6500 hn         1 6KN       0.383000
     29 H10         15.9140    28.0950    16.3650 h4         1 6KN       0.059800
     30 C1          14.5770    32.7980    15.1860 c3         1 6KN      -0.046800
@<TRIPOS>BOND
     1     1     2 ar  
     2     1     9 ar  
     3     1    20 1   
     4     2     3 ar  
     5     2    21 1   
     6     3     4 1   
     7     3     7 ar  
     8     4     6 ar  
     9     4    10 ar  
    10     5    10 ar  
    11     5    11 ar  
    12     5    16 1   
    13     6    12 ar  
    14     6    15 1   
    15     7     8 ar  
    16     7    30 1   
    17     8     9 ar  
    18     8    25 1   
    19    10    26 1   
    20    11    12 ar  
    21    11    27 1   
    22    12    13 1   
    23    13    14 1   
    24    13    28 1   
    25    14    15 2   
    26    15    29 1   
    27    16    17 1   
    28    16    18 1   
    29    16    19 1   
    30    22    30 1   
    31    23    30 1   
    32    24    30 1   
@<TRIPOS>SUBSTRUCTURE
     1 6KN         1 TEMP              0 ****  ****    0 ROOT
