@<TRIPOS>MOLECULE
6KN
   30    32     1     0     0
SMALL
No Charge or Current Charge


@<TRIPOS>ATOM
      1 C5          13.9110    30.5180    18.7440 ca         1 6KN       0.326900
      2 C6          15.1710    30.4200    18.1350 ca         1 6KN      -0.148000
      3 C7          15.4580    31.1630    16.9670 cp         1 6KN      -0.009000
      4 C8          16.8020    31.0650    16.3250 cp         1 6KN       0.035000
      5 C10         18.8900    32.1140    15.4780 ca         1 6KN      -0.153300
      6 C17         17.3520    29.8250    15.9410 ca         1 6KN      -0.199900
      7 C2          14.4150    31.9830    16.4560 ca         1 6KN      -0.107300
      8 C3          13.1810    32.0160    17.1400 ca         1 6KN       0.329900
      9 N4          12.9240    31.3040    18.2610 nb         1 6KN      -0.653000
     10 C9          17.6090    32.2110    16.0870 ca         1 6KN      -0.097000
     11 C11         19.3850    30.8360    15.1150 ca         1 6KN      -0.070000
     12 C12         18.5790    29.7190    15.3650 ca         1 6KN      -0.044200
     13 N13         18.8290    28.3860    15.1000 na         1 6KN      -0.068400
     14 N15         17.7390    27.5960    15.5030 nc         1 6KN      -0.498100
     15 C16         16.8530    28.4700    16.0080 cd         1 6KN       0.356800
     16 C18         19.7270    33.3760    15.2450 c3         1 6KN       0.343300
     17 F19         20.3860    33.7420    16.3670 f          1 6KN      -0.111333
     18 F20         20.6560    33.2140    14.2760 f          1 6KN      -0.111333
     19 F21         18.9630    34.4300    14.8750 f          1 6KN      -0.111333
     20 H1          13.6860    29.9530    19.6470 h4         1 6KN       0.023100
     21 H2          15.9270    29.7780    18.5770 ha         1 6KN       0.128000
     22 H3          15.1650    32.2760    14.4270 hc         1 6KN       0.049367
     23 H4          13.5990    33.0300    14.7250 hc         1 6KN       0.049367
     24 H5          15.0640    33.7640    15.3870 hc         1 6KN       0.049367
     25 H6          12.3610    32.6330    16.7730 h4         1 6KN       0.020100
     26 H7          17.2330    33.1850    16.3920 ha         1 6KN       0.135000
     27 H8          20.3650    30.7150    14.6560 ha         1 6KN       0.140000
     28 H9          19.6670    27.9910    14.6730 hn         1 6KN       0.383000
     29 H10         15.9080    28.1010    16.3890 h4         1 6KN       0.059800
     30 C1          14.5710    32.8070    15.1800 c3         1 6KN      -0.046800
@<TRIPOS>BOND
     1     1     2 ar  
     2     1     9 ar  
     3     1    20 1   
     4     2     3 ar  
     5     2    21 1   
     6     3     4 1   
     7     3     7 ar  
     8     4     6 ar  
     9     4    10 ar  
    10     5    10 ar  
    11     5    11 ar  
    12     5    16 1   
    13     6    12 ar  
    14     6    15 1   
    15     7     8 ar  
    16     7    30 1   
    17     8     9 ar  
    18     8    25 1   
    19    10    26 1   
    20    11    12 ar  
    21    11    27 1   
    22    12    13 1   
    23    13    14 1   
    24    13    28 1   
    25    14    15 2   
    26    15    29 1   
    27    16    17 1   
    28    16    18 1   
    29    16    19 1   
    30    22    30 1   
    31    23    30 1   
    32    24    30 1   
@<TRIPOS>SUBSTRUCTURE
     1 6KN         1 TEMP              0 ****  ****    0 ROOT
