@<TRIPOS>MOLECULE
6KO
   45    48     1     0     0
SMALL
No Charge or Current Charge


@<TRIPOS>ATOM
      1 C4          -1.7810     0.3860    -1.3380 ca         1 6KO      -0.021000
      2 C5          -2.5390     0.4430    -0.1450 ca         1 6KO      -0.182600
      3 C6          -3.8830     0.8790    -0.2010 ca         1 6KO       0.198100
      4 C8          -6.0050     1.3270     0.9930 c3         1 6KO       0.147900
      5 C13          1.1110    -2.1220     1.6490 c5         1 6KO       0.234500
      6 C15          1.8810    -3.9240     0.2470 c5         1 6KO      -0.099400
      7 C20          3.2280     1.8090     1.3600 cc         1 6KO       0.429900
      8 C22          2.9850     1.6930    -0.8290 cd         1 6KO       0.444500
      9 C24          2.5170     1.0610    -2.7660 cc         1 6KO       0.548200
     10 C9          -1.8980     0.0430     1.1590 c          1 6KO       0.618700
     11 O10         -2.1510     0.5670     2.2360 o          1 6KO      -0.468000
     12 O11         -0.8780    -0.8540     0.9840 os         1 6KO      -0.447100
     13 C12         -0.0730    -1.2220     2.1250 c3         1 6KO       0.151600
     14 C14          0.6630    -3.5140     1.1140 c5         1 6KO      -0.089400
     15 C16          2.1040    -2.6300    -0.5710 c5         1 6KO       0.240800
     16 N17          1.8770    -1.5980     0.4740 nh         1 6KO      -0.814400
     17 C18          2.3690    -0.2810     0.3910 cd         1 6KO       0.428000
     18 C19          2.7400     0.4660     1.4890 cc         1 6KO      -0.347000
     19 N21          3.3710     2.4910     0.2260 nd         1 6KO      -0.674000
     20 N23          2.9970     2.1380    -2.0590 nc         1 6KO      -0.396300
     21 N25          2.1910    -0.0420    -2.0890 nd         1 6KO      -0.631100
     22 N26          2.5300     0.4010    -0.8310 na         1 6KO       0.037900
     23 C1          -4.4440     1.2590    -1.4420 ca         1 6KO      -0.221000
     24 C2          -3.6790     1.2030    -2.6170 ca         1 6KO      -0.040000
     25 C3          -2.3490     0.7650    -2.5640 ca         1 6KO      -0.164000
     26 O7          -4.6320     0.9000     0.9610 os         1 6KO      -0.319100
     27 H1          -0.7430     0.0560    -1.3210 ha         1 6KO       0.138000
     28 H2          -6.3970     1.2660     2.0160 h1         1 6KO       0.044367
     29 H3          -6.0990     2.3670     0.6560 h1         1 6KO       0.044367
     30 H4          -6.6270     0.6890     0.3530 h1         1 6KO       0.044367
     31 H5           1.7890    -2.2590     2.5030 h1         1 6KO       0.063700
     32 H6           2.7560    -4.1630     0.8650 hc         1 6KO       0.059700
     33 H7           1.6790    -4.7910    -0.3910 hc         1 6KO       0.059700
     34 H9           2.4150     1.1560    -3.8400 h5         1 6KO       0.067800
     35 H10         -0.6690    -1.7680     2.8680 h1         1 6KO       0.060700
     36 H11          0.3370    -0.3280     2.6110 h1         1 6KO       0.060700
     37 H12          0.4600    -4.2230     1.9240 hc         1 6KO       0.065700
     38 H13         -0.2470    -3.4420     0.5060 hc         1 6KO       0.065700
     39 H14          3.1130    -2.5860    -1.0050 h1         1 6KO       0.069700
     40 H15          1.3700    -2.5430    -1.3860 h1         1 6KO       0.069700
     41 H16          2.6870     0.0490     2.4850 ha         1 6KO       0.135000
     42 H17         -5.4730     1.5950    -1.5180 ha         1 6KO       0.121000
     43 H18         -4.1170     1.4970    -3.5690 ha         1 6KO       0.114000
     44 H19         -1.7550     0.7200    -3.4740 ha         1 6KO       0.123000
     45 H8           3.5190     2.3750     2.2350 h4         1 6KO       0.028100
@<TRIPOS>BOND
     1     1     2 ar  
     2     1    25 ar  
     3     1    27 1   
     4     2     3 ar  
     5     2    10 1   
     6     3    23 ar  
     7     3    26 1   
     8     4    26 1   
     9     4    28 1   
    10     4    29 1   
    11     4    30 1   
    12     5    13 1   
    13     5    14 1   
    14     5    16 1   
    15     5    31 1   
    16     6    14 1   
    17     6    15 1   
    18     6    32 1   
    19     6    33 1   
    20     7    18 1   
    21     7    19 2   
    22     7    45 1   
    23     8    19 1   
    24     8    20 2   
    25     8    22 1   
    26     9    20 1   
    27     9    21 2   
    28     9    34 1   
    29    10    11 2   
    30    10    12 1   
    31    12    13 1   
    32    13    35 1   
    33    13    36 1   
    34    14    37 1   
    35    14    38 1   
    36    15    16 1   
    37    15    39 1   
    38    15    40 1   
    39    16    17 1   
    40    17    18 2   
    41    17    22 1   
    42    18    41 1   
    43    21    22 1   
    44    23    24 ar  
    45    23    42 1   
    46    24    25 ar  
    47    24    43 1   
    48    25    44 1   
@<TRIPOS>SUBSTRUCTURE
     1 6KO         1 TEMP              0 ****  ****    0 ROOT
