@<TRIPOS>MOLECULE
6KO
   45    48     1     0     0
SMALL
bcc


@<TRIPOS>ATOM
      1 C4          -1.6890     0.3260    -1.2800 ca         1 6KO      -0.039000
      2 C5          -2.4630     0.3810    -0.1210 ca         1 6KO      -0.182600
      3 C6          -3.8100     0.7810    -0.2110 ca         1 6KO       0.198100
      4 C8          -5.9010     1.1350     0.8540 c3         1 6KO       0.124700
      5 C13          1.1060    -1.9800     1.6500 c5         1 6KO       0.234500
      6 C15          1.5730    -3.7360     0.0790 c5         1 6KO      -0.099400
      7 C20          3.4000     1.6580     1.4090 cc         1 6KO       0.495200
      8 C22          3.1250     1.6640    -0.8050 cd         1 6KO       0.444500
      9 C24          2.4690     1.0950    -2.7060 cc         1 6KO       0.548200
     10 C9          -1.8450     0.0590     1.1880 c          1 6KO       0.667700
     11 O10         -2.1550     0.5340     2.2520 o          1 6KO      -0.517000
     12 O11         -0.8600    -0.8220     1.0470 os         1 6KO      -0.423900
     13 C12         -0.0210    -1.0980     2.1630 c3         1 6KO       0.128400
     14 C14          0.6480    -3.3790     1.2320 c5         1 6KO      -0.089400
     15 C16          1.7030    -2.4180    -0.6680 c5         1 6KO       0.240800
     16 N17          1.7050    -1.4380     0.4250 nh         1 6KO      -0.676000
     17 C18          2.3090    -0.2490     0.4200 cd         1 6KO       0.340300
     18 C19          2.7750     0.4230     1.5490 cc         1 6KO      -0.430300
     19 N21          3.5960     2.2910     0.2680 nd         1 6KO      -0.674000
     20 N23          3.1150     2.0770    -2.0620 nc         1 6KO      -0.396300
     21 N25          2.0680     0.0820    -1.9730 nd         1 6KO      -0.631100
     22 N26          2.5020     0.4330    -0.7470 na         1 6KO      -0.012800
     23 C1          -4.3380     1.1160    -1.4580 ca         1 6KO      -0.239000
     24 C2          -3.5420     1.0660    -2.5920 ca         1 6KO      -0.058000
     25 C3          -2.2140     0.6740    -2.5130 ca         1 6KO      -0.182000
     26 O7          -4.5290     0.7890     0.9160 os         1 6KO      -0.295900
     27 H1          -0.6520     0.0260    -1.2190 ha         1 6KO       0.156000
     28 H2          -6.2790     1.0590     1.8700 h1         1 6KO       0.044367
     29 H3          -6.0470     2.1580     0.5000 h1         1 6KO       0.044367
     30 H4          -6.4640     0.4530     0.2140 h1         1 6KO       0.044367
     31 H5           1.8590    -2.0650     2.4410 h1         1 6KO       0.063700
     32 H6           2.5480    -4.0560     0.4510 hc         1 6KO       0.059700
     33 H7           1.1750    -4.5250    -0.5580 hc         1 6KO       0.059700
     34 H9           2.2750     1.1170    -3.7680 h5         1 6KO       0.067800
     35 H10         -0.5680    -1.6290     2.9460 h1         1 6KO       0.060700
     36 H11          0.3520    -0.1660     2.5920 h1         1 6KO       0.060700
     37 H12          0.7050    -4.0740     2.0680 hc         1 6KO       0.065700
     38 H13         -0.3880    -3.3570     0.8870 hc         1 6KO       0.065700
     39 H14          2.6180    -2.3530    -1.2510 h1         1 6KO       0.069700
     40 H15          0.8590    -2.2580    -1.3400 h1         1 6KO       0.069700
     41 H16          2.6950    -0.0220     2.5280 ha         1 6KO       0.153000
     42 H17         -5.3710     1.4170    -1.5600 ha         1 6KO       0.139000
     43 H18         -3.9740     1.3370    -3.5470 ha         1 6KO       0.132000
     44 H19         -1.5950     0.6350    -3.3980 ha         1 6KO       0.141000
     45 H8           3.7740     2.1480     2.3010 h4         1 6KO       0.028100
@<TRIPOS>BOND
     1     1     2 ar  
     2     1    25 ar  
     3     1    27 1   
     4     2     3 ar  
     5     2    10 1   
     6     3    23 ar  
     7     3    26 1   
     8     4    26 1   
     9     4    28 1   
    10     4    29 1   
    11     4    30 1   
    12     5    13 1   
    13     5    14 1   
    14     5    16 1   
    15     5    31 1   
    16     6    14 1   
    17     6    15 1   
    18     6    32 1   
    19     6    33 1   
    20     7    18 1   
    21     7    19 2   
    22     7    45 1   
    23     8    19 1   
    24     8    20 2   
    25     8    22 1   
    26     9    20 1   
    27     9    21 2   
    28     9    34 1   
    29    10    11 2   
    30    10    12 1   
    31    12    13 1   
    32    13    35 1   
    33    13    36 1   
    34    14    37 1   
    35    14    38 1   
    36    15    16 1   
    37    15    39 1   
    38    15    40 1   
    39    16    17 1   
    40    17    18 2   
    41    17    22 1   
    42    18    41 1   
    43    21    22 1   
    44    23    24 ar  
    45    23    42 1   
    46    24    25 ar  
    47    24    43 1   
    48    25    44 1   
@<TRIPOS>SUBSTRUCTURE
     1 6KO         1 TEMP              0 ****  ****    0 ROOT
