@<TRIPOS>MOLECULE
6KQ
   92    98     1     0     0
SMALL
No Charge or Current Charge


@<TRIPOS>ATOM
      1 C2           4.4370     2.5060    -0.8530 ca         1 6KQ       0.199100
      2 C4           3.9210     1.7580     1.4120 ca         1 6KQ       0.025500
      3 C6           4.2350     0.1250    -0.3710 ca         1 6KQ       0.025500
      4 C7           4.4680     1.1700    -1.2790 ca         1 6KQ      -0.197500
      5 O10          3.5120    -0.3960     3.5040 o          1 6KQ      -0.543500
      6 N11          2.0970    -1.4940     1.6930 n3         1 6KQ      -0.754500
      7 C16          1.2090    -0.4930     1.0450 c3         1 6KQ       0.176800
      8 C17         -0.3060    -0.7850     1.2260 c3         1 6KQ       0.146300
      9 O18         -0.5720    -0.9720     2.6280 oh         1 6KQ      -0.647000
     10 C21         -3.1180    -0.9980    -0.3860 c          1 6KQ       0.640100
     11 O28         -7.4260    -4.2330     0.3710 os         1 6KQ      -0.463000
     12 C29         -7.9560    -3.1210     1.1100 c5         1 6KQ       0.154600
     13 C30         -6.8650    -2.0560     0.8930 c5         1 6KQ      -0.103400
     14 C31         -6.6240    -2.2200    -0.6530 c5         1 6KQ      -0.131700
     15 C32         -1.1230     1.7200     1.2760 c3         1 6KQ      -0.081400
     16 O39          4.6870     3.4870    -1.7910 os         1 6KQ      -0.334100
     17 C40          4.7360     4.8830    -1.4480 c3         1 6KQ       0.145900
     18 C3           4.1640     2.7990     0.5000 ca         1 6KQ      -0.197500
     19 C5           3.9570     0.4180     0.9770 ca         1 6KQ      -0.342500
     20 S8           3.6480    -0.9220     2.1420 sy         1 6KQ       1.186600
     21 O9           4.6080    -1.9860     1.8350 o          1 6KQ      -0.543500
     22 C42          2.0200    -2.8860     1.1630 c3         1 6KQ       0.265100
     23 C43          1.6040    -2.7050    -1.3650 ca         1 6KQ      -0.097500
     24 C44          2.0090    -2.8820    -2.6990 ca         1 6KQ      -0.110500
     25 C45          3.2640    -3.4410    -2.9860 ca         1 6KQ      -0.101000
     26 C46          4.1080    -3.8350    -1.9350 ca         1 6KQ      -0.110500
     27 C47          3.7040    -3.6570    -0.6010 ca         1 6KQ      -0.097500
     28 C48          2.4570    -3.0670    -0.2990 ca         1 6KQ      -0.127300
     29 C19         -1.2230     0.3130     0.6050 c3         1 6KQ       0.093700
     30 N20         -2.6200    -0.1320     0.5430 ns         1 6KQ      -0.486900
     31 O22         -2.4710    -1.4890    -1.2980 o          1 6KQ      -0.554000
     32 O23         -4.4420    -1.2050    -0.1230 os         1 6KQ      -0.451100
     33 C24         -5.1000    -2.1500    -1.0120 c5         1 6KQ       0.165300
     34 C25         -4.6580    -3.6080    -0.7000 c5         1 6KQ       0.127600
     35 O26         -5.7460    -4.3870    -1.2400 os         1 6KQ      -0.442000
     36 C27         -6.9810    -3.7240    -0.9020 c5         1 6KQ       0.374300
     37 C51         -0.8430     2.9310     0.3210 c6         1 6KQ      -0.046000
     38 C52         -0.8200     4.2510     1.1650 c6         1 6KQ      -0.064733
     39 C53         -0.5410     5.4840     0.2570 c6         1 6KQ      -0.058367
     40 C54         -1.6580     5.5920    -0.8200 c6         1 6KQ      -0.069067
     41 C55         -1.6760     4.2990    -1.6840 c6         1 6KQ      -0.058367
     42 C56         -0.2950     4.1220    -2.3790 c6         1 6KQ      -0.069067
     43 C57          0.8240     4.0170    -1.3030 c6         1 6KQ      -0.058367
     44 C58          0.5480     2.7900    -0.3890 c6         1 6KQ      -0.064733
     45 C59         -1.9570     3.0700    -0.7710 c6         1 6KQ      -0.064733
     46 C60          0.8380     5.3100    -0.4390 c6         1 6KQ      -0.069067
     47 H1           3.7070     2.0000     2.4520 ha         1 6KQ       0.131000
     48 H2           4.2670    -0.9050    -0.7190 ha         1 6KQ       0.131000
     49 H3           4.6780     0.9430    -2.3200 ha         1 6KQ       0.127500
     50 H4           1.3960     0.4930     1.4890 h1         1 6KQ       0.057200
     51 H5           1.4400    -0.3970    -0.0230 h1         1 6KQ       0.057200
     52 H6          -0.5230    -1.7180     0.6930 h1         1 6KQ       0.084700
     53 H7           0.2760    -1.3140     2.9950 ho         1 6KQ       0.455000
     54 H9          -8.0920    -3.3930     2.1650 h1         1 6KQ       0.049700
     55 H10         -7.2010    -1.0490     1.1650 hc         1 6KQ       0.065200
     56 H11         -5.9920    -2.2920     1.5120 hc         1 6KQ       0.065200
     57 H12         -7.2390    -1.5440    -1.2560 hc         1 6KQ       0.078700
     58 H13         -2.0480     1.9080     1.8350 hc         1 6KQ       0.051700
     59 H14         -0.3460     1.7010     2.0480 hc         1 6KQ       0.051700
     60 H15          5.5220     5.0740    -0.7060 h1         1 6KQ       0.046700
     61 H16          4.9550     5.4850    -2.3380 h1         1 6KQ       0.046700
     62 H17          3.7760     5.2200    -1.0380 h1         1 6KQ       0.046700
     63 H18          4.1310     3.8220     0.8600 ha         1 6KQ       0.127500
     64 H19          2.6080    -3.5640     1.7960 h1         1 6KQ       0.077700
     65 H20          0.9890    -3.2550     1.2440 h1         1 6KQ       0.077700
     66 H21          0.6200    -2.2870    -1.1690 ha         1 6KQ       0.118500
     67 H22          1.3470    -2.5900    -3.5110 ha         1 6KQ       0.117000
     68 H23          3.5770    -3.5790    -4.0180 ha         1 6KQ       0.114000
     69 H24          5.0760    -4.2810    -2.1540 ha         1 6KQ       0.117000
     70 H25          4.3660    -3.9800     0.1990 ha         1 6KQ       0.118500
     71 H26         -0.8930     0.4120    -0.4360 h1         1 6KQ       0.083700
     72 H27         -3.2700     0.1750     1.2540 hn         1 6KQ       0.333500
     73 H28         -4.9380    -1.8810    -2.0660 h1         1 6KQ       0.074700
     74 H29         -3.7170    -3.8870    -1.1920 h1         1 6KQ       0.069200
     75 H30         -4.5710    -3.7970     0.3790 h1         1 6KQ       0.069200
     76 H31         -7.7450    -3.8610    -1.6790 h2         1 6KQ       0.087700
     77 H32         -1.7780     4.3850     1.6860 hc         1 6KQ       0.040367
     78 H33         -0.0520     4.1880     1.9480 hc         1 6KQ       0.040367
     79 H34         -0.5310     6.3960     0.8690 hc         1 6KQ       0.049367
     80 H35         -2.6350     5.7420    -0.3400 hc         1 6KQ       0.040367
     81 H36         -1.4870     6.4710    -1.4570 hc         1 6KQ       0.040367
     82 H37         -2.4630     4.3780    -2.4460 hc         1 6KQ       0.049367
     83 H38         -0.3000     3.2230    -3.0100 hc         1 6KQ       0.040367
     84 H39         -0.0970     4.9700    -3.0490 hc         1 6KQ       0.040367
     85 H40          1.7960     3.8930    -1.7980 hc         1 6KQ       0.049367
     86 H41          1.3440     2.7000     0.3610 hc         1 6KQ       0.040367
     87 H42          0.5960     1.8770    -0.9970 hc         1 6KQ       0.040367
     88 H43         -2.0100     2.1650    -1.3910 hc         1 6KQ       0.040367
     89 H44         -2.9420     3.1740    -0.2970 hc         1 6KQ       0.040367
     90 H45          1.0610     6.1840    -1.0670 hc         1 6KQ       0.040367
     91 H46          1.6370     5.2550     0.3130 hc         1 6KQ       0.040367
     92 H8          -8.9240    -2.8220     0.6830 h1         1 6KQ       0.049700
@<TRIPOS>BOND
     1     1     4 ar  
     2     1    16 1   
     3     1    18 ar  
     4     2    18 ar  
     5     2    19 ar  
     6     2    47 1   
     7     3     4 ar  
     8     3    19 ar  
     9     3    48 1   
    10     4    49 1   
    11     5    20 2   
    12     6     7 1   
    13     6    20 1   
    14     6    22 1   
    15     7     8 1   
    16     7    50 1   
    17     7    51 1   
    18     8     9 1   
    19     8    29 1   
    20     8    52 1   
    21     9    53 1   
    22    10    30 1   
    23    10    31 2   
    24    10    32 1   
    25    11    12 1   
    26    11    36 1   
    27    12    13 1   
    28    12    54 1   
    29    12    92 1   
    30    13    14 1   
    31    13    55 1   
    32    13    56 1   
    33    14    33 1   
    34    14    36 1   
    35    14    57 1   
    36    15    29 1   
    37    15    37 1   
    38    15    58 1   
    39    15    59 1   
    40    16    17 1   
    41    17    60 1   
    42    17    61 1   
    43    17    62 1   
    44    18    63 1   
    45    19    20 1   
    46    20    21 2   
    47    22    28 1   
    48    22    64 1   
    49    22    65 1   
    50    23    24 ar  
    51    23    28 ar  
    52    23    66 1   
    53    24    25 ar  
    54    24    67 1   
    55    25    26 ar  
    56    25    68 1   
    57    26    27 ar  
    58    26    69 1   
    59    27    28 ar  
    60    27    70 1   
    61    29    30 1   
    62    29    71 1   
    63    30    72 1   
    64    32    33 1   
    65    33    34 1   
    66    33    73 1   
    67    34    35 1   
    68    34    74 1   
    69    34    75 1   
    70    35    36 1   
    71    36    76 1   
    72    37    38 1   
    73    37    44 1   
    74    37    45 1   
    75    38    39 1   
    76    38    77 1   
    77    38    78 1   
    78    39    40 1   
    79    39    46 1   
    80    39    79 1   
    81    40    41 1   
    82    40    80 1   
    83    40    81 1   
    84    41    42 1   
    85    41    45 1   
    86    41    82 1   
    87    42    43 1   
    88    42    83 1   
    89    42    84 1   
    90    43    44 1   
    91    43    46 1   
    92    43    85 1   
    93    44    86 1   
    94    44    87 1   
    95    45    88 1   
    96    45    89 1   
    97    46    90 1   
    98    46    91 1   
@<TRIPOS>SUBSTRUCTURE
     1 6KQ         1 TEMP              0 ****  ****    0 ROOT
