@<TRIPOS>MOLECULE
6KQ
   92    98     1     0     0
SMALL
abcg2


@<TRIPOS>ATOM
      1 C2           5.9120     1.4940    -0.6830 ca         1 6KQ       0.199100
      2 C4           4.0740     1.4150     0.8670 ca         1 6KQ       0.025500
      3 C6           5.4420    -0.5360     0.5260 ca         1 6KQ       0.025500
      4 C7           6.2120     0.1630    -0.3780 ca         1 6KQ      -0.197500
      5 O10          2.8370     0.1260     3.2420 o          1 6KQ      -0.543500
      6 N11          2.0210    -1.3630     1.4230 n3         1 6KQ      -0.754500
      7 C16          1.0970    -0.3670     0.9120 c3         1 6KQ       0.176800
      8 C17         -0.3500    -0.6620     1.2960 c3         1 6KQ       0.146300
      9 O18         -0.5270    -0.8390     2.6770 oh         1 6KQ      -0.647000
     10 C21         -3.1760    -0.7740    -0.2280 c          1 6KQ       0.640100
     11 O28         -7.5580    -4.2070    -0.0570 os         1 6KQ      -0.463000
     12 C29         -7.8060    -3.4460     1.1150 c5         1 6KQ       0.154600
     13 C30         -6.7430    -2.3610     1.1130 c5         1 6KQ      -0.103400
     14 C31         -6.5960    -2.0640    -0.3810 c5         1 6KQ      -0.131700
     15 C32         -1.1180     1.7850     1.4000 c3         1 6KQ      -0.081400
     16 O39          6.7080     2.0890    -1.5770 os         1 6KQ      -0.334100
     17 C40          6.4620     3.4430    -1.9190 c3         1 6KQ       0.145900
     18 C3           4.8390     2.1200    -0.0480 ca         1 6KQ      -0.197500
     19 C5           4.3590     0.0850     1.1430 ca         1 6KQ      -0.342500
     20 S8           3.3350    -0.8250     2.2580 sy         1 6KQ       1.186600
     21 O9           4.0720    -1.9990     2.6990 o          1 6KQ      -0.543500
     22 C42          1.9820    -2.6930     0.8130 c3         1 6KQ       0.265100
     23 C43          1.2810    -2.5200    -1.6050 ca         1 6KQ      -0.097500
     24 C44          1.5760    -2.4950    -2.9620 ca         1 6KQ      -0.110500
     25 C45          2.8850    -2.6670    -3.3920 ca         1 6KQ      -0.101000
     26 C46          3.8950    -2.8700    -2.4610 ca         1 6KQ      -0.110500
     27 C47          3.5950    -2.8900    -1.1070 ca         1 6KQ      -0.097500
     28 C48          2.2900    -2.7050    -0.6610 ca         1 6KQ      -0.127300
     29 C19         -1.2630     0.4240     0.7060 c3         1 6KQ       0.093700
     30 N20         -2.6460    -0.0020     0.7340 ns         1 6KQ      -0.486900
     31 O22         -2.6120    -1.1110    -1.2500 o          1 6KQ      -0.554000
     32 O23         -4.4330    -1.1230     0.0810 os         1 6KQ      -0.451100
     33 C24         -5.1650    -1.8760    -0.8710 c5         1 6KQ       0.165300
     34 C25         -4.7040    -3.3220    -1.0500 c5         1 6KQ       0.127600
     35 O26         -5.8460    -3.9640    -1.5850 os         1 6KQ      -0.442000
     36 C27         -7.0070    -3.3880    -1.0510 c5         1 6KQ       0.374300
     37 C51         -1.1040     2.9990     0.4650 c6         1 6KQ      -0.046000
     38 C52         -1.1100     4.2760     1.3190 c6         1 6KQ      -0.064733
     39 C53         -1.0780     5.5210     0.4320 c6         1 6KQ      -0.058367
     40 C54         -2.3060     5.5240    -0.4810 c6         1 6KQ      -0.069067
     41 C55         -2.2950     4.2690    -1.3550 c6         1 6KQ      -0.058367
     42 C56         -1.0250     4.2480    -2.2080 c6         1 6KQ      -0.069067
     43 C57          0.2030     4.2490    -1.2940 c6         1 6KQ      -0.058367
     44 C58          0.1690     3.0120    -0.3950 c6         1 6KQ      -0.064733
     45 C59         -2.3260     3.0260    -0.4640 c6         1 6KQ      -0.064733
     46 C60          0.1900     5.5070    -0.4230 c6         1 6KQ      -0.069067
     47 H1           3.2670     1.9320     1.3690 ha         1 6KQ       0.131000
     48 H2           5.7040    -1.5580     0.7610 ha         1 6KQ       0.131000
     49 H3           7.0590    -0.3160    -0.8530 ha         1 6KQ       0.127500
     50 H4           1.3730     0.6170     1.2920 h1         1 6KQ       0.057200
     51 H5           1.1790    -0.2960    -0.1770 h1         1 6KQ       0.057200
     52 H6          -0.6510    -1.6080     0.8360 h1         1 6KQ       0.084700
     53 H7          -0.0400    -0.1590     3.1550 ho         1 6KQ       0.455000
     54 H9          -7.7470    -4.1080     1.9800 h1         1 6KQ       0.049700
     55 H10         -7.0400    -1.4850     1.6890 hc         1 6KQ       0.065200
     56 H11         -5.8160    -2.7430     1.5450 hc         1 6KQ       0.065200
     57 H12         -7.2450    -1.2420    -0.6840 hc         1 6KQ       0.078700
     58 H13         -1.9220     1.9060     2.1330 hc         1 6KQ       0.051700
     59 H14         -0.1940     1.8200     1.9880 hc         1 6KQ       0.051700
     60 H15          6.5550     4.1020    -1.0520 h1         1 6KQ       0.046700
     61 H16          7.2170     3.7160    -2.6510 h1         1 6KQ       0.046700
     62 H17          5.4740     3.5750    -2.3640 h1         1 6KQ       0.046700
     63 H18          4.5890     3.1540    -0.2410 ha         1 6KQ       0.127500
     64 H19          2.6640    -3.3450     1.3530 h1         1 6KQ       0.077700
     65 H20          0.9820    -3.0950     0.9900 h1         1 6KQ       0.077700
     66 H21          0.2510    -2.3970    -1.2850 ha         1 6KQ       0.118500
     67 H22          0.7830    -2.3480    -3.6830 ha         1 6KQ       0.117000
     68 H23          3.1150    -2.6510    -4.4500 ha         1 6KQ       0.114000
     69 H24          4.9150    -3.0190    -2.7880 ha         1 6KQ       0.117000
     70 H25          4.3860    -3.0690    -0.3890 ha         1 6KQ       0.118500
     71 H26         -0.9870     0.5210    -0.3470 h1         1 6KQ       0.083700
     72 H27         -3.1820     0.1630     1.5720 hn         1 6KQ       0.333500
     73 H28         -5.1620    -1.3630    -1.8370 h1         1 6KQ       0.074700
     74 H29         -3.8840    -3.4370    -1.7560 h1         1 6KQ       0.069200
     75 H30         -4.3960    -3.7540    -0.0880 h1         1 6KQ       0.069200
     76 H31         -7.7220    -3.2750    -1.8720 h2         1 6KQ       0.087700
     77 H32         -2.0040     4.2910     1.9520 hc         1 6KQ       0.040367
     78 H33         -0.2440     4.2720     1.9910 hc         1 6KQ       0.040367
     79 H34         -1.0870     6.4150     1.0640 hc         1 6KQ       0.049367
     80 H35         -3.2220     5.5540     0.1190 hc         1 6KQ       0.040367
     81 H36         -2.3080     6.4230    -1.1070 hc         1 6KQ       0.040367
     82 H37         -3.1740     4.2660    -2.0070 hc         1 6KQ       0.049367
     83 H38         -1.0170     3.3590    -2.8480 hc         1 6KQ       0.040367
     84 H39         -1.0000     5.1190    -2.8700 hc         1 6KQ       0.040367
     85 H40          1.1130     4.2300    -1.9010 hc         1 6KQ       0.049367
     86 H41          1.0520     3.0020     0.2580 hc         1 6KQ       0.040367
     87 H42          0.2280     2.1090    -1.0130 hc         1 6KQ       0.040367
     88 H43         -2.3450     2.1290    -1.0920 hc         1 6KQ       0.040367
     89 H44         -3.2460     3.0100     0.1320 hc         1 6KQ       0.040367
     90 H45          0.2300     6.4030    -1.0520 hc         1 6KQ       0.040367
     91 H46          1.0790     5.5290     0.2170 hc         1 6KQ       0.040367
     92 H8          -8.8120    -3.0120     1.0880 h1         1 6KQ       0.049700
@<TRIPOS>BOND
     1     1     4 ar  
     2     1    16 1   
     3     1    18 ar  
     4     2    18 ar  
     5     2    19 ar  
     6     2    47 1   
     7     3     4 ar  
     8     3    19 ar  
     9     3    48 1   
    10     4    49 1   
    11     5    20 2   
    12     6     7 1   
    13     6    20 1   
    14     6    22 1   
    15     7     8 1   
    16     7    50 1   
    17     7    51 1   
    18     8     9 1   
    19     8    29 1   
    20     8    52 1   
    21     9    53 1   
    22    10    30 1   
    23    10    31 2   
    24    10    32 1   
    25    11    12 1   
    26    11    36 1   
    27    12    13 1   
    28    12    54 1   
    29    12    92 1   
    30    13    14 1   
    31    13    55 1   
    32    13    56 1   
    33    14    33 1   
    34    14    36 1   
    35    14    57 1   
    36    15    29 1   
    37    15    37 1   
    38    15    58 1   
    39    15    59 1   
    40    16    17 1   
    41    17    60 1   
    42    17    61 1   
    43    17    62 1   
    44    18    63 1   
    45    19    20 1   
    46    20    21 2   
    47    22    28 1   
    48    22    64 1   
    49    22    65 1   
    50    23    24 ar  
    51    23    28 ar  
    52    23    66 1   
    53    24    25 ar  
    54    24    67 1   
    55    25    26 ar  
    56    25    68 1   
    57    26    27 ar  
    58    26    69 1   
    59    27    28 ar  
    60    27    70 1   
    61    29    30 1   
    62    29    71 1   
    63    30    72 1   
    64    32    33 1   
    65    33    34 1   
    66    33    73 1   
    67    34    35 1   
    68    34    74 1   
    69    34    75 1   
    70    35    36 1   
    71    36    76 1   
    72    37    38 1   
    73    37    44 1   
    74    37    45 1   
    75    38    39 1   
    76    38    77 1   
    77    38    78 1   
    78    39    40 1   
    79    39    46 1   
    80    39    79 1   
    81    40    41 1   
    82    40    80 1   
    83    40    81 1   
    84    41    42 1   
    85    41    45 1   
    86    41    82 1   
    87    42    43 1   
    88    42    83 1   
    89    42    84 1   
    90    43    44 1   
    91    43    46 1   
    92    43    85 1   
    93    44    86 1   
    94    44    87 1   
    95    45    88 1   
    96    45    89 1   
    97    46    90 1   
    98    46    91 1   
@<TRIPOS>SUBSTRUCTURE
     1 6KQ         1 TEMP              0 ****  ****    0 ROOT
