@<TRIPOS>MOLECULE
6KR
   94    99     1     0     0
SMALL
abcg2


@<TRIPOS>ATOM
      1 O10         19.4910    22.8090    15.9820 o          1 6KR      -0.541500
      2 C12         18.6250    24.2300    18.4120 c3         1 6KR       0.200800
      3 C13         18.1280    23.6090    19.7190 c3         1 6KR      -0.061700
      4 C14         17.9910    22.0930    19.6050 c3         1 6KR      -0.091600
      5 C15         19.0920    24.0000    20.8410 c3         1 6KR      -0.091600
      6 C16         16.4640    24.7700    17.2840 c3         1 6KR       0.181800
      7 C17         15.2670    23.9470    17.7770 c3         1 6KR       0.142300
      8 C19         14.8190    22.8210    16.8360 c3         1 6KR       0.144700
      9 C24         13.4770    18.9440    19.4220 c5         1 6KR       0.162300
     10 C25         12.8800    18.9770    20.8350 c5         1 6KR       0.143600
     11 O28         10.4450    18.5340    19.2000 os         1 6KR      -0.478000
     12 C2          20.4380    27.8040    14.9130 ca         1 6KR       0.193100
     13 C3          19.1300    27.5510    14.4810 ca         1 6KR      -0.193500
     14 C4          18.5380    26.3290    14.7290 ca         1 6KR       0.023000
     15 C5          19.2490    25.3400    15.4140 ca         1 6KR      -0.360500
     16 C6          20.5490    25.5850    15.8430 ca         1 6KR       0.023000
     17 C7          21.1490    26.8120    15.5940 ca         1 6KR      -0.193500
     18 S8          18.4630    23.8100    15.8050 sy         1 6KR       1.191600
     19 O9          17.4210    23.5820    14.8310 o          1 6KR      -0.541500
     20 N11         17.7220    24.0040    17.2650 n3         1 6KR      -0.736500
     21 O18         14.1530    24.8190    17.9860 oh         1 6KR      -0.665000
     22 N20         13.9090    21.9460    17.5650 ns         1 6KR      -0.492900
     23 O22         15.3310    20.1850    17.8660 o          1 6KR      -0.549000
     24 O23         13.2500    20.2210    18.7950 os         1 6KR      -0.458100
     25 O26         11.8650    17.9540    20.8880 os         1 6KR      -0.439000
     26 C27         11.4750    17.6330    19.5850 c5         1 6KR       0.381300
     27 C29         10.0720    18.3680    17.8260 c6         1 6KR       0.166600
     28 C30         11.2230    18.7550    16.9150 c6         1 6KR      -0.112400
     29 C41         12.4600    17.9090    17.2270 c6         1 6KR      -0.056400
     30 C31         12.7340    17.7850    18.7300 c5         1 6KR      -0.134700
     31 C32         14.2040    23.3350    15.5320 c3         1 6KR      -0.069400
     32 C51         13.8480    22.2980    14.4470 c6         1 6KR      -0.035000
     33 C52         12.4820    21.6350    14.7130 c6         1 6KR      -0.068733
     34 C53         12.1150    20.6620    13.5850 c6         1 6KR      -0.057700
     35 C54         13.1940    19.5740    13.4810 c6         1 6KR      -0.068067
     36 C55         14.5500    20.2260    13.1760 c6         1 6KR      -0.057700
     37 C56         14.4640    20.9920    11.8490 c6         1 6KR      -0.068067
     38 C57         13.3860    22.0790    11.9580 c6         1 6KR      -0.057700
     39 C58         13.7520    23.0400    13.0960 c6         1 6KR      -0.068733
     40 C59         14.9130    21.1930    14.3120 c6         1 6KR      -0.068733
     41 C60         12.0300    21.4240    12.2560 c6         1 6KR      -0.068067
     42 C40         22.2640    29.3460    15.0330 c3         1 6KR       0.146900
     43 H1          19.5900    23.7880    18.1710 h1         1 6KR       0.050700
     44 H2          18.7680    25.3070    18.5440 h1         1 6KR       0.050700
     45 H3          17.1510    24.0380    19.9590 hc         1 6KR       0.040700
     46 H4          17.6270    21.6680    20.5430 hc         1 6KR       0.041033
     47 H5          17.2990    21.8070    18.8140 hc         1 6KR       0.041033
     48 H6          18.9620    21.6400    19.3820 hc         1 6KR       0.041033
     49 H7          18.7520    23.5940    21.7960 hc         1 6KR       0.041033
     50 H8          20.0930    23.6060    20.6440 hc         1 6KR       0.041033
     51 H9          19.1680    25.0850    20.9400 hc         1 6KR       0.041033
     52 H10         16.5930    25.6200    17.9570 h1         1 6KR       0.055200
     53 H11         16.2480    25.1700    16.2960 h1         1 6KR       0.055200
     54 H12         15.5370    23.4730    18.7230 h1         1 6KR       0.051700
     55 H13         15.7020    22.2280    16.6150 h1         1 6KR       0.098700
     56 H14         14.5470    18.7700    19.4310 h1         1 6KR       0.085700
     57 H16         12.4420    19.9560    21.0350 h1         1 6KR       0.065200
     58 H17         18.5970    28.3260    13.9450 ha         1 6KR       0.129000
     59 H18         17.5320    26.1360    14.3820 ha         1 6KR       0.134000
     60 H19         21.1040    24.8160    16.3620 ha         1 6KR       0.134000
     61 H20         22.1620    26.9820    15.9290 ha         1 6KR       0.129000
     62 H21         14.3290    25.3570    18.7680 ho         1 6KR       0.441000
     63 H22         13.0080    22.3110    17.8320 hn         1 6KR       0.332500
     64 H23         11.0750    16.6130    19.5900 h2         1 6KR       0.071700
     65 H24          9.2030    19.0050    17.6710 h1         1 6KR       0.044700
     66 H25          9.7700    17.3250    17.6540 h1         1 6KR       0.044700
     67 H26         11.4370    19.8130    17.0600 hc         1 6KR       0.057200
     68 H27         10.9290    18.6180    15.8720 hc         1 6KR       0.057200
     69 H28         12.3000    16.9010    16.8350 hc         1 6KR       0.051200
     70 H29         13.3400    18.3050    16.7180 hc         1 6KR       0.051200
     71 H30         13.3380    16.8920    18.9070 hc         1 6KR       0.068700
     72 H31         14.9230    24.0320    15.1020 hc         1 6KR       0.056200
     73 H32         13.3080    23.9170    15.7630 hc         1 6KR       0.056200
     74 H33         11.7160    22.4140    14.7980 hc         1 6KR       0.045200
     75 H34         12.5060    21.1040    15.6630 hc         1 6KR       0.045200
     76 H35         11.1490    20.2000    13.8080 hc         1 6KR       0.045033
     77 H36         12.9320    18.8620    12.6910 hc         1 6KR       0.037033
     78 H37         13.2530    19.0140    14.4180 hc         1 6KR       0.037033
     79 H38         15.3200    19.4520    13.1050 hc         1 6KR       0.045033
     80 H39         14.2220    20.3040    11.0330 hc         1 6KR       0.037033
     81 H40         15.4330    21.4460    11.6160 hc         1 6KR       0.037033
     82 H41         13.3270    22.6350    11.0180 hc         1 6KR       0.045033
     83 H42         14.7110    23.5230    12.8810 hc         1 6KR       0.045200
     84 H43         13.0020    23.8350    13.1730 hc         1 6KR       0.045200
     85 H44         14.9930    20.6330    15.2460 hc         1 6KR       0.045200
     86 H45         15.8890    21.6490    14.1250 hc         1 6KR       0.045200
     87 H46         11.2490    22.1890    12.3130 hc         1 6KR       0.037033
     88 H47         11.7580    20.7400    11.4460 hc         1 6KR       0.037033
     89 H48         22.4390    30.3650    14.6980 h1         1 6KR       0.048033
     90 H49         22.3590    29.2910    16.1190 h1         1 6KR       0.048033
     91 H50         22.9850    28.6730    14.5640 h1         1 6KR       0.048033
     92 C21         14.2620    20.7460    18.0550 c          1 6KR       0.631100
     93 O39         20.9300    29.0280    14.6230 os         1 6KR      -0.343100
     94 H15         13.6140    18.7450    21.6040 h1         1 6KR       0.065200
@<TRIPOS>BOND
     1     1    18 2   
     2     2     3 1   
     3     2    20 1   
     4     2    43 1   
     5     2    44 1   
     6     3     4 1   
     7     3     5 1   
     8     3    45 1   
     9     4    46 1   
    10     4    47 1   
    11     4    48 1   
    12     5    49 1   
    13     5    50 1   
    14     5    51 1   
    15     6     7 1   
    16     6    20 1   
    17     6    52 1   
    18     6    53 1   
    19     7     8 1   
    20     7    21 1   
    21     7    54 1   
    22     8    22 1   
    23     8    31 1   
    24     8    55 1   
    25     9    10 1   
    26     9    24 1   
    27     9    30 1   
    28     9    56 1   
    29    10    25 1   
    30    10    57 1   
    31    10    94 1   
    32    11    26 1   
    33    11    27 1   
    34    12    13 ar  
    35    12    17 ar  
    36    12    93 1   
    37    13    14 ar  
    38    13    58 1   
    39    14    15 ar  
    40    14    59 1   
    41    15    16 ar  
    42    15    18 1   
    43    16    17 ar  
    44    16    60 1   
    45    17    61 1   
    46    18    19 2   
    47    18    20 1   
    48    21    62 1   
    49    22    63 1   
    50    22    92 1   
    51    23    92 2   
    52    24    92 1   
    53    25    26 1   
    54    26    30 1   
    55    26    64 1   
    56    27    28 1   
    57    27    65 1   
    58    27    66 1   
    59    28    29 1   
    60    28    67 1   
    61    28    68 1   
    62    29    30 1   
    63    29    69 1   
    64    29    70 1   
    65    30    71 1   
    66    31    32 1   
    67    31    72 1   
    68    31    73 1   
    69    32    33 1   
    70    32    39 1   
    71    32    40 1   
    72    33    34 1   
    73    33    74 1   
    74    33    75 1   
    75    34    35 1   
    76    34    41 1   
    77    34    76 1   
    78    35    36 1   
    79    35    77 1   
    80    35    78 1   
    81    36    37 1   
    82    36    40 1   
    83    36    79 1   
    84    37    38 1   
    85    37    80 1   
    86    37    81 1   
    87    38    39 1   
    88    38    41 1   
    89    38    82 1   
    90    39    83 1   
    91    39    84 1   
    92    40    85 1   
    93    40    86 1   
    94    41    87 1   
    95    41    88 1   
    96    42    89 1   
    97    42    90 1   
    98    42    91 1   
    99    42    93 1   
@<TRIPOS>SUBSTRUCTURE
     1 6KR         1 TEMP              0 ****  ****    0 ROOT
