@<TRIPOS>MOLECULE
6KR
   94    99     1     0     0
SMALL
No Charge or Current Charge


@<TRIPOS>ATOM
      1 O10         19.5680    23.0090    15.1350 o          1 6KR      -0.541500
      2 C12         18.7900    23.9140    17.8740 c3         1 6KR       0.200800
      3 C13         18.3470    23.3710    19.2590 c3         1 6KR      -0.061700
      4 C14         17.9500    21.8760    19.2030 c3         1 6KR      -0.091600
      5 C15         19.4500    23.6010    20.3180 c3         1 6KR      -0.091600
      6 C16         16.5830    24.6900    16.9840 c3         1 6KR       0.181800
      7 C17         15.3500    23.9570    17.6050 c3         1 6KR       0.142300
      8 C19         14.8230    22.7460    16.7660 c3         1 6KR       0.144700
      9 C24         13.3040    19.1520    19.6850 c5         1 6KR       0.162300
     10 C25         12.6100    19.2630    21.0810 c5         1 6KR       0.143600
     11 O28         10.2370    18.8520    19.5810 os         1 6KR      -0.478000
     12 C2          20.4260    28.2270    15.5230 ca         1 6KR       0.193100
     13 C3          19.0950    28.0810    15.1050 ca         1 6KR      -0.193500
     14 C4          18.5110    26.8080    15.0090 ca         1 6KR       0.023000
     15 C5          19.2650    25.6660    15.3380 ca         1 6KR      -0.360500
     16 C6          20.6050    25.8040    15.7520 ca         1 6KR       0.023000
     17 C7          21.1830    27.0810    15.8460 ca         1 6KR      -0.193500
     18 S8          18.5200    24.0320    15.2260 sy         1 6KR       1.191600
     19 O9          17.4290    24.0630    14.2480 o          1 6KR      -0.541500
     20 N11         17.7950    23.8420    16.7660 n3         1 6KR      -0.736500
     21 O18         14.2830    24.9020    17.8440 oh         1 6KR      -0.665000
     22 N20         13.8930    21.9770    17.6050 ns         1 6KR      -0.492900
     23 O22         15.0800    20.0240    17.7950 o          1 6KR      -0.549000
     24 O23         13.1640    20.4400    19.0220 os         1 6KR      -0.458100
     25 O26         11.7540    18.1050    21.1860 os         1 6KR      -0.439000
     26 C27         11.2380    17.8460    19.8770 c5         1 6KR       0.381300
     27 C29          9.7580    18.9110    18.2210 c6         1 6KR       0.166600
     28 C30         10.9180    19.1760    17.2360 c6         1 6KR      -0.112400
     29 C41         12.0860    18.1820    17.4440 c6         1 6KR      -0.056400
     30 C31         12.4690    18.0350    18.9450 c5         1 6KR      -0.134700
     31 C32         14.1850    23.1470    15.3950 c3         1 6KR      -0.069400
     32 C51         13.8870    22.0340    14.3210 c6         1 6KR      -0.035000
     33 C52         12.7130    21.0880    14.7440 c6         1 6KR      -0.068733
     34 C53         12.4100    20.0450    13.6300 c6         1 6KR      -0.057700
     35 C54         13.6820    19.1870    13.3720 c6         1 6KR      -0.068067
     36 C55         14.8490    20.1090    12.9150 c6         1 6KR      -0.057700
     37 C56         14.4430    20.8480    11.6080 c6         1 6KR      -0.068067
     38 C57         13.1710    21.7040    11.8680 c6         1 6KR      -0.057700
     39 C58         13.4700    22.7420    12.9860 c6         1 6KR      -0.068733
     40 C59         15.1500    21.1540    14.0300 c6         1 6KR      -0.068733
     41 C60         12.0060    20.7820    12.3230 c6         1 6KR      -0.068067
     42 C40         22.2940    29.7640    16.0150 c3         1 6KR       0.146900
     43 H1          19.6910    23.3490    17.6030 h1         1 6KR       0.050700
     44 H2          19.1100    24.9570    18.0070 h1         1 6KR       0.050700
     45 H3          17.4810    23.9490    19.5970 hc         1 6KR       0.040700
     46 H4          17.5770    21.5360    20.1760 hc         1 6KR       0.041033
     47 H5          17.1630    21.7040    18.4620 hc         1 6KR       0.041033
     48 H6          18.8110    21.2550    18.9280 hc         1 6KR       0.041033
     49 H7          19.1170    23.2590    21.3050 hc         1 6KR       0.041033
     50 H8          20.3650    23.0550    20.0560 hc         1 6KR       0.041033
     51 H9          19.6970    24.6670    20.3950 hc         1 6KR       0.041033
     52 H10         16.8440    25.5360    17.6350 h1         1 6KR       0.055200
     53 H11         16.2400    25.1510    16.0510 h1         1 6KR       0.055200
     54 H12         15.6650    23.5430    18.5680 h1         1 6KR       0.051700
     55 H13         15.7000    22.1200    16.5570 h1         1 6KR       0.098700
     56 H14         14.3630    18.8810    19.8070 h1         1 6KR       0.085700
     57 H16         11.9930    20.1690    21.1530 h1         1 6KR       0.065200
     58 H17         18.5120    28.9630    14.8520 ha         1 6KR       0.129000
     59 H18         17.4770    26.7180    14.6780 ha         1 6KR       0.134000
     60 H19         21.2020    24.9280    16.0050 ha         1 6KR       0.134000
     61 H20         22.2160    27.1600    16.1710 ha         1 6KR       0.129000
     62 H21         14.5470    25.4600    18.6080 ho         1 6KR       0.441000
     63 H22         13.0820    22.4520    17.9770 hn         1 6KR       0.332500
     64 H23         10.8080    16.8380    19.8050 h2         1 6KR       0.071700
     65 H24          9.0040    19.7070    18.1390 h1         1 6KR       0.044700
     66 H25          9.2710    17.9550    17.9760 h1         1 6KR       0.044700
     67 H26         11.2600    20.2100    17.3620 hc         1 6KR       0.057200
     68 H27         10.5470    19.1050    16.2050 hc         1 6KR       0.057200
     69 H28         11.7730    17.1980    17.0650 hc         1 6KR       0.051200
     70 H29         12.9590    18.4680    16.8430 hc         1 6KR       0.051200
     71 H30         13.0590    17.1120    18.9730 hc         1 6KR       0.068700
     72 H31         14.8500    23.8790    14.9280 hc         1 6KR       0.056200
     73 H32         13.2600    23.6990    15.6000 hc         1 6KR       0.056200
     74 H33         11.8110    21.6720    14.9710 hc         1 6KR       0.045200
     75 H34         12.9730    20.5460    15.6560 hc         1 6KR       0.045200
     76 H35         11.5870    19.3920    13.9510 hc         1 6KR       0.045033
     77 H36         13.4770    18.4260    12.6060 hc         1 6KR       0.037033
     78 H37         13.9630    18.6420    14.2830 hc         1 6KR       0.037033
     79 H38         15.7460    19.5020    12.7300 hc         1 6KR       0.045033
     80 H39         14.2550    20.1220    10.8050 hc         1 6KR       0.037033
     81 H40         15.2670    21.4870    11.2630 hc         1 6KR       0.037033
     82 H41         12.8860    22.2280    10.9450 hc         1 6KR       0.045033
     83 H42         14.2680    23.4200    12.6500 hc         1 6KR       0.045200
     84 H43         12.5850    23.3730    13.1510 hc         1 6KR       0.045200
     85 H44         15.4690    20.6230    14.9360 hc         1 6KR       0.045200
     86 H45         15.9950    21.7860    13.7270 hc         1 6KR       0.045200
     87 H46         11.0950    21.3730    12.4870 hc         1 6KR       0.037033
     88 H47         11.7670    20.0540    11.5350 hc         1 6KR       0.037033
     89 H48         22.4950    30.8420    16.0030 h1         1 6KR       0.048033
     90 H49         22.4640    29.3980    17.0350 h1         1 6KR       0.048033
     91 H50         23.0110    29.2780    15.3410 h1         1 6KR       0.048033
     92 C21         14.1230    20.7220    18.0890 c          1 6KR       0.631100
     93 O39         20.9410    29.5050    15.5970 os         1 6KR      -0.343100
     94 H15         13.3310    19.2670    21.9090 h1         1 6KR       0.065200
@<TRIPOS>BOND
     1     1    18 2   
     2     2     3 1   
     3     2    20 1   
     4     2    43 1   
     5     2    44 1   
     6     3     4 1   
     7     3     5 1   
     8     3    45 1   
     9     4    46 1   
    10     4    47 1   
    11     4    48 1   
    12     5    49 1   
    13     5    50 1   
    14     5    51 1   
    15     6     7 1   
    16     6    20 1   
    17     6    52 1   
    18     6    53 1   
    19     7     8 1   
    20     7    21 1   
    21     7    54 1   
    22     8    22 1   
    23     8    31 1   
    24     8    55 1   
    25     9    10 1   
    26     9    24 1   
    27     9    30 1   
    28     9    56 1   
    29    10    25 1   
    30    10    57 1   
    31    10    94 1   
    32    11    26 1   
    33    11    27 1   
    34    12    13 ar  
    35    12    17 ar  
    36    12    93 1   
    37    13    14 ar  
    38    13    58 1   
    39    14    15 ar  
    40    14    59 1   
    41    15    16 ar  
    42    15    18 1   
    43    16    17 ar  
    44    16    60 1   
    45    17    61 1   
    46    18    19 2   
    47    18    20 1   
    48    21    62 1   
    49    22    63 1   
    50    22    92 1   
    51    23    92 2   
    52    24    92 1   
    53    25    26 1   
    54    26    30 1   
    55    26    64 1   
    56    27    28 1   
    57    27    65 1   
    58    27    66 1   
    59    28    29 1   
    60    28    67 1   
    61    28    68 1   
    62    29    30 1   
    63    29    69 1   
    64    29    70 1   
    65    30    71 1   
    66    31    32 1   
    67    31    72 1   
    68    31    73 1   
    69    32    33 1   
    70    32    39 1   
    71    32    40 1   
    72    33    34 1   
    73    33    74 1   
    74    33    75 1   
    75    34    35 1   
    76    34    41 1   
    77    34    76 1   
    78    35    36 1   
    79    35    77 1   
    80    35    78 1   
    81    36    37 1   
    82    36    40 1   
    83    36    79 1   
    84    37    38 1   
    85    37    80 1   
    86    37    81 1   
    87    38    39 1   
    88    38    41 1   
    89    38    82 1   
    90    39    83 1   
    91    39    84 1   
    92    40    85 1   
    93    40    86 1   
    94    41    87 1   
    95    41    88 1   
    96    42    89 1   
    97    42    90 1   
    98    42    91 1   
    99    42    93 1   
@<TRIPOS>SUBSTRUCTURE
     1 6KR         1 TEMP              0 ****  ****    0 ROOT
