@<TRIPOS>MOLECULE
6KS
   44    44     1     0     0
SMALL
abcg2


@<TRIPOS>ATOM
      1 C4          -3.4680     0.4650    -0.6260 c6         1 6KS       0.146300
      2 C5          -2.3170     1.2310     0.0290 c6         1 6KS       0.170300
      3 C6          -2.7520     2.6070     0.4870 c3         1 6KS       0.170600
      4 C3          -3.0250    -0.9640    -0.9250 c6         1 6KS       0.108300
      5 CAR          8.4350     0.0750    -0.1670 c3         1 6KS      -0.088100
      6 CAQ          7.1310    -0.5370    -0.6570 c3         1 6KS      -0.074400
      7 CAP          5.9050     0.0280     0.0510 c3         1 6KS      -0.075400
      8 CAO          4.5980    -0.5920    -0.4260 c3         1 6KS      -0.074400
      9 CAN          3.3750    -0.0560     0.3060 c3         1 6KS      -0.074400
     10 CAM          2.0760    -0.6950    -0.1700 c3         1 6KS      -0.082400
     11 CAL          0.8840    -0.2070     0.6260 c3         1 6KS       0.166600
     12 O1          -0.2890    -0.8280     0.1230 os         1 6KS      -0.494000
     13 C1          -1.3930    -0.7630     0.9610 c6         1 6KS       0.364300
     14 O5          -1.8530     0.5380     1.1760 os         1 6KS      -0.455000
     15 C2          -2.4760    -1.6270     0.3260 c6         1 6KS       0.147300
     16 F2          -3.4980    -1.7650     1.2610 f          1 6KS      -0.248000
     17 O3          -4.1290    -1.6570    -1.4540 oh         1 6KS      -0.654000
     18 O4          -3.8180     1.1420    -1.8080 oh         1 6KS      -0.720000
     19 O6          -1.6320     3.2960     0.9890 oh         1 6KS      -0.714000
     20 H1          -4.3160     0.4360     0.0750 h1         1 6KS       0.064700
     21 H2          -1.5090     1.3420    -0.7100 h1         1 6KS       0.069700
     22 H3          -3.2010     3.1300    -0.3640 h1         1 6KS       0.036200
     23 H4          -3.5370     2.4940     1.2470 h1         1 6KS       0.036200
     24 H5          -2.2040    -0.9140    -1.6530 h1         1 6KS       0.064700
     25 H6           9.2970    -0.3540    -0.6780 hc         1 6KS       0.031367
     26 H7           8.4550     1.1530    -0.3350 hc         1 6KS       0.031367
     27 H8           8.5690    -0.0910     0.9040 hc         1 6KS       0.031367
     28 H9           7.0320    -0.3760    -1.7350 hc         1 6KS       0.036700
     29 H10          7.1590    -1.6220    -0.5160 hc         1 6KS       0.036700
     30 H11          6.0080    -0.1290     1.1310 hc         1 6KS       0.038200
     31 H12          5.8690     1.1130    -0.0930 hc         1 6KS       0.038200
     32 H13          4.4850    -0.4210    -1.5020 hc         1 6KS       0.037700
     33 H14          4.6460    -1.6790    -0.2960 hc         1 6KS       0.037700
     34 H15          3.4930    -0.2280     1.3810 hc         1 6KS       0.040700
     35 H16          3.3200     1.0300     0.1770 hc         1 6KS       0.040700
     36 H17          1.9260    -0.4730    -1.2310 hc         1 6KS       0.049200
     37 H18          2.1500    -1.7830    -0.0800 hc         1 6KS       0.049200
     38 H19          1.0140    -0.4580     1.6880 h1         1 6KS       0.038200
     39 H20          0.8020     0.8830     0.5600 h1         1 6KS       0.038200
     40 H21         -1.1470    -1.1440     1.9620 h2         1 6KS       0.084700
     41 H22         -2.0880    -2.6250     0.1070 h1         1 6KS       0.071700
     42 H23         -3.8110    -2.4010    -1.9740 ho         1 6KS       0.452000
     43 H24         -4.5360     0.6560    -2.2270 ho         1 6KS       0.522000
     44 H25         -1.9200     4.1720     1.2580 ho         1 6KS       0.503000
@<TRIPOS>BOND
     1     1     2 1   
     2     1     4 1   
     3     1    18 1   
     4     1    20 1   
     5     2     3 1   
     6     2    14 1   
     7     2    21 1   
     8     3    19 1   
     9     3    22 1   
    10     3    23 1   
    11     4    15 1   
    12     4    17 1   
    13     4    24 1   
    14     5     6 1   
    15     5    25 1   
    16     5    26 1   
    17     5    27 1   
    18     6     7 1   
    19     6    28 1   
    20     6    29 1   
    21     7     8 1   
    22     7    30 1   
    23     7    31 1   
    24     8     9 1   
    25     8    32 1   
    26     8    33 1   
    27     9    10 1   
    28     9    34 1   
    29     9    35 1   
    30    10    11 1   
    31    10    36 1   
    32    10    37 1   
    33    11    12 1   
    34    11    38 1   
    35    11    39 1   
    36    12    13 1   
    37    13    14 1   
    38    13    15 1   
    39    13    40 1   
    40    15    16 1   
    41    15    41 1   
    42    17    42 1   
    43    18    43 1   
    44    19    44 1   
@<TRIPOS>SUBSTRUCTURE
     1 6KS         1 TEMP              0 ****  ****    0 ROOT
