@<TRIPOS>MOLECULE
6KS
   44    44     1     0     0
SMALL
No Charge or Current Charge


@<TRIPOS>ATOM
      1 C4          -3.4000     0.5310    -0.7510 c6         1 6KS       0.146300
      2 C5          -2.1710     1.2030    -0.0630 c6         1 6KS       0.170300
      3 C6          -2.4080     2.7230     0.2260 c3         1 6KS       0.170600
      4 C3          -3.1230    -0.9880    -0.9510 c6         1 6KS       0.108300
      5 CAR          8.4240     0.2780    -0.3140 c3         1 6KS      -0.088100
      6 CAQ          7.0790    -0.2530    -0.8460 c3         1 6KS      -0.074400
      7 CAP          5.8980     0.0230     0.1100 c3         1 6KS      -0.075400
      8 CAO          4.5500    -0.5090    -0.4240 c3         1 6KS      -0.074400
      9 CAN          3.3700    -0.2320     0.5330 c3         1 6KS      -0.074400
     10 CAM          2.0220    -0.7640    -0.0020 c3         1 6KS      -0.082400
     11 CAL          0.8460    -0.4860     0.9530 c3         1 6KS       0.166600
     12 O1          -0.3400    -1.0230     0.3450 os         1 6KS      -0.494000
     13 C1          -1.5650    -0.8710     1.0910 c6         1 6KS       0.364300
     14 O5          -1.8840     0.5370     1.1990 os         1 6KS      -0.455000
     15 C2          -2.7300    -1.6490     0.4060 c6         1 6KS       0.147300
     16 F2          -3.8530    -1.6440     1.2710 f          1 6KS      -0.248000
     17 O3          -4.2720    -1.6200    -1.5630 oh         1 6KS      -0.654000
     18 O4          -3.7070     1.1270    -2.0250 oh         1 6KS      -0.720000
     19 O6          -1.3070     3.3570     0.9110 oh         1 6KS      -0.714000
     20 H1          -4.2630     0.6360    -0.0770 h1         1 6KS       0.064700
     21 H2          -1.2940     1.1180    -0.7210 h1         1 6KS       0.069700
     22 H3          -2.5920     3.2290    -0.7310 h1         1 6KS       0.036200
     23 H4          -3.3260     2.8150     0.8230 h1         1 6KS       0.036200
     24 H5          -2.2540    -1.0840    -1.6220 h1         1 6KS       0.064700
     25 H6           9.2300     0.0590    -1.0250 hc         1 6KS       0.031367
     26 H7           8.3820     1.3640    -0.1670 hc         1 6KS       0.031367
     27 H8           8.6750    -0.1930     0.6440 hc         1 6KS       0.031367
     28 H9           6.8740     0.2090    -1.8200 hc         1 6KS       0.036700
     29 H10          7.1650    -1.3330    -1.0160 hc         1 6KS       0.036700
     30 H11          6.1080    -0.4380     1.0830 hc         1 6KS       0.038200
     31 H12          5.8180     1.1050     0.2790 hc         1 6KS       0.038200
     32 H13          4.3410    -0.0470    -1.3970 hc         1 6KS       0.037700
     33 H14          4.6320    -1.5900    -0.5930 hc         1 6KS       0.037700
     34 H15          3.5790    -0.6940     1.5060 hc         1 6KS       0.040700
     35 H16          3.2890     0.8490     0.7020 hc         1 6KS       0.040700
     36 H17          1.8090    -0.3000    -0.9730 hc         1 6KS       0.049200
     37 H18          2.0990    -1.8450    -0.1680 hc         1 6KS       0.049200
     38 H19          1.0370    -0.9650     1.9230 h1         1 6KS       0.038200
     39 H20          0.7520     0.5960     1.1120 h1         1 6KS       0.038200
     40 H21         -1.4210    -1.2870     2.1000 h2         1 6KS       0.084700
     41 H22         -2.4350    -2.6960     0.2550 h1         1 6KS       0.071700
     42 H23         -4.0740    -2.5800    -1.6450 ho         1 6KS       0.452000
     43 H24         -4.2630     0.4510    -2.4860 ho         1 6KS       0.522000
     44 H25         -1.5850     4.2830     1.1050 ho         1 6KS       0.503000
@<TRIPOS>BOND
     1     1     2 1   
     2     1     4 1   
     3     1    18 1   
     4     1    20 1   
     5     2     3 1   
     6     2    14 1   
     7     2    21 1   
     8     3    19 1   
     9     3    22 1   
    10     3    23 1   
    11     4    15 1   
    12     4    17 1   
    13     4    24 1   
    14     5     6 1   
    15     5    25 1   
    16     5    26 1   
    17     5    27 1   
    18     6     7 1   
    19     6    28 1   
    20     6    29 1   
    21     7     8 1   
    22     7    30 1   
    23     7    31 1   
    24     8     9 1   
    25     8    32 1   
    26     8    33 1   
    27     9    10 1   
    28     9    34 1   
    29     9    35 1   
    30    10    11 1   
    31    10    36 1   
    32    10    37 1   
    33    11    12 1   
    34    11    38 1   
    35    11    39 1   
    36    12    13 1   
    37    13    14 1   
    38    13    15 1   
    39    13    40 1   
    40    15    16 1   
    41    15    41 1   
    42    17    42 1   
    43    18    43 1   
    44    19    44 1   
@<TRIPOS>SUBSTRUCTURE
     1 6KS         1 TEMP              0 ****  ****    0 ROOT
