@<TRIPOS>MOLECULE
6KT
   20    21     1     0     0
SMALL
No Charge or Current Charge


@<TRIPOS>ATOM
      1 C4           0.7560     0.8290     0.0620 ca         1 6KT       0.000000
      2 C5           1.4790    -1.5010     0.0200 ca         1 6KT      -0.074000
      3 C6           1.8070    -0.1180     0.0330 ca         1 6KT      -0.171600
      4 C8          -2.9000    -0.1370     0.1130 cc         1 6KT       0.655100
      5 C10          3.2380     0.3690     0.0150 c          1 6KT       0.618700
      6 N12         -4.2400    -0.2010     0.1280 nv         1 6KT      -1.022200
      7 C1          -0.8910    -0.9660     0.0670 ca         1 6KT       0.168400
      8 C2          -0.5720     0.3780     0.0790 ca         1 6KT      -0.209000
      9 C3           0.1330    -1.9210     0.0370 ca         1 6KT      -0.094000
     10 N7          -2.2450    -1.2860     0.0850 nd         1 6KT      -0.641100
     11 S9          -2.0020     1.3970     0.1150 ss         1 6KT      -0.027200
     12 O11          3.5310     1.5530     0.0250 o          1 6KT      -0.607100
     13 N13          4.2270    -0.5500    -0.0130 nt         1 6KT      -0.601000
     14 H15          0.9660     1.8980     0.0720 ha         1 6KT       0.145000
     15 H16          2.2550    -2.2620    -0.0030 ha         1 6KT       0.112000
     16 H18         -4.7430     0.6210    -0.1870 hn         1 6KT       0.497000
     17 H17         -4.6350    -1.0960    -0.1340 hn         1 6KT       0.497000
     18 H14         -0.1110    -2.9800     0.0280 ha         1 6KT       0.133000
     19 H19          4.0070    -1.5330    -0.0220 hn         1 6KT       0.312000
     20 H20          5.1860    -0.2390    -0.0250 hn         1 6KT       0.312000
@<TRIPOS>BOND
     1     1     3 ar  
     2     1     8 ar  
     3     1    14 1   
     4     2     3 ar  
     5     2     9 ar  
     6     2    15 1   
     7     3     5 1   
     8     4     6 1   
     9     4    10 2   
    10     4    11 1   
    11     5    12 2   
    12     5    13 1   
    13     6    16 1   
    14     6    17 1   
    15     7     8 ar  
    16     7     9 ar  
    17     7    10 1   
    18     8    11 1   
    19     9    18 1   
    20    13    19 1   
    21    13    20 1   
@<TRIPOS>SUBSTRUCTURE
     1 6KT         1 TEMP              0 ****  ****    0 ROOT
