@<TRIPOS>MOLECULE
6KT
   20    21     1     0     0
SMALL
bcc


@<TRIPOS>ATOM
      1 C4           0.7860     0.8030     0.0740 ca         1 6KT      -0.018000
      2 C5           1.4830    -1.5050     0.1880 ca         1 6KT      -0.092000
      3 C6           1.8070    -0.1440     0.1270 ca         1 6KT      -0.171600
      4 C8          -2.8980    -0.1980     0.0110 cc         1 6KT       0.655100
      5 C10          3.2130     0.3560     0.1480 c          1 6KT       0.685700
      6 N12         -4.2340    -0.1550     0.0020 nv         1 6KT      -0.911800
      7 C1          -0.8600    -1.0010     0.1080 ca         1 6KT       0.168400
      8 C2          -0.5210     0.3640     0.0550 ca         1 6KT      -0.082100
      9 C3           0.1700    -1.9380     0.1830 ca         1 6KT      -0.112000
     10 N7          -2.1970    -1.2860     0.0830 nd         1 6KT      -0.641100
     11 S9          -1.9810     1.3070    -0.0320 ss         1 6KT      -0.154100
     12 O11          3.4700     1.5060     0.4800 o          1 6KT      -0.607100
     13 N13          4.1670    -0.5220    -0.2050 nt         1 6KT      -0.668000
     14 H15          1.0190     1.8590     0.0380 ha         1 6KT       0.163000
     15 H16          2.2620    -2.2520     0.2660 ha         1 6KT       0.130000
     16 H18         -4.7250     0.6870    -0.2430 hn         1 6KT       0.441800
     17 H17         -4.7340    -1.0190    -0.1310 hn         1 6KT       0.441800
     18 H14         -0.0620    -2.9930     0.2420 ha         1 6KT       0.151000
     19 H19          3.9560    -1.3960    -0.6540 hn         1 6KT       0.312000
     20 H20          5.1250    -0.2170    -0.2440 hn         1 6KT       0.312000
@<TRIPOS>BOND
     1     1     3 ar  
     2     1     8 ar  
     3     1    14 1   
     4     2     3 ar  
     5     2     9 ar  
     6     2    15 1   
     7     3     5 1   
     8     4     6 1   
     9     4    10 2   
    10     4    11 1   
    11     5    12 2   
    12     5    13 1   
    13     6    16 1   
    14     6    17 1   
    15     7     8 ar  
    16     7     9 ar  
    17     7    10 1   
    18     8    11 1   
    19     9    18 1   
    20    13    19 1   
    21    13    20 1   
@<TRIPOS>SUBSTRUCTURE
     1 6KT         1 TEMP              0 ****  ****    0 ROOT
