@<TRIPOS>MOLECULE
6KU
   44    44     1     0     0
SMALL
No Charge or Current Charge


@<TRIPOS>ATOM
      1 C4          -3.5260    -0.5110     1.0870 c6         1 6KU      -0.144400
      2 C5          -2.3620    -1.2760     0.4020 c6         1 6KU       0.174300
      3 C6          -2.6280    -2.8170     0.3340 c3         1 6KU       0.166600
      4 C3          -3.2630     1.0160     1.0380 c6         1 6KU       0.184300
      5 CAR          8.1910    -0.2030     0.2750 c3         1 6KU      -0.088100
      6 CAQ          6.8500     0.3760     0.7670 c3         1 6KU      -0.075400
      7 CAP          5.6530    -0.0350    -0.1170 c3         1 6KU      -0.075400
      8 CAO          4.3090     0.5470     0.3760 c3         1 6KU      -0.074400
      9 CAN          3.1120     0.1350    -0.5080 c3         1 6KU      -0.073400
     10 CAM          1.7680     0.7160    -0.0150 c3         1 6KU      -0.083400
     11 CAL          0.5760     0.3030    -0.8980 c3         1 6KU       0.166600
     12 O1          -0.6050     0.9000    -0.3370 os         1 6KU      -0.492000
     13 C1          -1.8430     0.6370    -1.0290 c6         1 6KU       0.353300
     14 O5          -2.1520    -0.7760    -0.9460 os         1 6KU      -0.457000
     15 O6          -1.5640    -3.5580    -0.2960 oh         1 6KU      -0.710000
     16 O3          -4.3450     1.7290     1.6660 oh         1 6KU      -0.641000
     17 C2          -3.0240     1.4870    -0.4380 c6         1 6KU       0.157300
     18 O2          -4.2360     1.3480    -1.2360 oh         1 6KU      -0.691000
     19 H41         -4.4750    -0.7500     0.5890 hc         1 6KU       0.060700
     20 H42         -3.6220    -0.8440     2.1290 hc         1 6KU       0.060700
     21 H5          -1.4410    -1.1240     0.9850 h1         1 6KU       0.053700
     22 H62         -2.7790    -3.1820     1.3590 h1         1 6KU       0.026700
     23 H61         -3.5700    -2.9780    -0.2090 h1         1 6KU       0.026700
     24 H31         -2.3390     1.2120     1.6020 h1         1 6KU       0.045700
     25 HAR          8.4130     0.1420    -0.7420 hc         1 6KU       0.031367
     26 HAS          9.0090     0.1150     0.9320 hc         1 6KU       0.031367
     27 HAT          8.1610    -1.3000     0.2710 hc         1 6KU       0.031367
     28 HAQ          6.6740     0.0420     1.7970 hc         1 6KU       0.036700
     29 HAU          6.9240     1.4710     0.7930 hc         1 6KU       0.036700
     30 HAV          5.8340     0.2990    -1.1470 hc         1 6KU       0.037200
     31 HAP          5.5840    -1.1300    -0.1430 hc         1 6KU       0.037200
     32 HAO          4.1290     0.2130     1.4050 hc         1 6KU       0.038200
     33 HAW          4.3790     1.6410     0.4020 hc         1 6KU       0.038200
     34 HAX          3.2920     0.4690    -1.5380 hc         1 6KU       0.039700
     35 HAN          3.0420    -0.9600    -0.5340 hc         1 6KU       0.039700
     36 HAM          1.5840     0.3800     1.0120 hc         1 6KU       0.049200
     37 HAY          1.8340     1.8110     0.0080 hc         1 6KU       0.049200
     38 HAZ          0.7380     0.6550    -1.9260 h1         1 6KU       0.034200
     39 HAL          0.4940    -0.7920    -0.9130 h1         1 6KU       0.034200
     40 H1          -1.7180     0.9120    -2.0870 h2         1 6KU       0.063700
     41 H63         -1.8650    -4.4940    -0.3610 ho         1 6KU       0.502000
     42 H32         -4.4310     1.3690     2.5750 ho         1 6KU       0.440000
     43 H21         -2.7080     2.5410    -0.4150 h1         1 6KU       0.058700
     44 H22         -4.0940     1.8520    -2.0700 ho         1 6KU       0.501000
@<TRIPOS>BOND
     1     1     2 1   
     2     1     4 1   
     3     1    19 1   
     4     1    20 1   
     5     2     3 1   
     6     2    14 1   
     7     2    21 1   
     8     3    15 1   
     9     3    22 1   
    10     3    23 1   
    11     4    16 1   
    12     4    17 1   
    13     4    24 1   
    14     5     6 1   
    15     5    25 1   
    16     5    26 1   
    17     5    27 1   
    18     6     7 1   
    19     6    28 1   
    20     6    29 1   
    21     7     8 1   
    22     7    30 1   
    23     7    31 1   
    24     8     9 1   
    25     8    32 1   
    26     8    33 1   
    27     9    10 1   
    28     9    34 1   
    29     9    35 1   
    30    10    11 1   
    31    10    36 1   
    32    10    37 1   
    33    11    12 1   
    34    11    38 1   
    35    11    39 1   
    36    12    13 1   
    37    13    14 1   
    38    13    17 1   
    39    13    40 1   
    40    15    41 1   
    41    16    42 1   
    42    17    18 1   
    43    17    43 1   
    44    18    44 1   
@<TRIPOS>SUBSTRUCTURE
     1 6KU         1 TEMP              0 ****  ****    0 ROOT
