@<TRIPOS>MOLECULE
6KU
   44    44     1     0     0
SMALL
abcg2


@<TRIPOS>ATOM
      1 C4          -3.6570    -0.5160     0.9480 c6         1 6KU      -0.144400
      2 C5          -2.5380    -1.3530     0.3400 c6         1 6KU       0.174300
      3 C6          -2.9960    -2.7710     0.0860 c3         1 6KU       0.166600
      4 C3          -3.2220     0.9420     1.0610 c6         1 6KU       0.184300
      5 CAR          8.2060     0.0300     0.0780 c3         1 6KU      -0.088100
      6 CAQ          6.8890     0.6090     0.5760 c3         1 6KU      -0.075400
      7 CAP          5.6730     0.0000    -0.1120 c3         1 6KU      -0.075400
      8 CAO          4.3550     0.5900     0.3730 c3         1 6KU      -0.074400
      9 CAN          3.1350     0.0010    -0.3230 c3         1 6KU      -0.073400
     10 CAM          1.8300     0.6260     0.1540 c3         1 6KU      -0.083400
     11 CAL          0.6250     0.0560    -0.5650 c3         1 6KU       0.166600
     12 O1          -0.5410     0.6940    -0.0770 os         1 6KU      -0.492000
     13 C1          -1.6820     0.5190    -0.8540 c6         1 6KU       0.353300
     14 O5          -2.1120    -0.8080    -0.9000 os         1 6KU      -0.457000
     15 O6          -1.9060    -3.5500    -0.3440 oh         1 6KU      -0.710000
     16 O3          -4.2480     1.7850     1.5290 oh         1 6KU      -0.641000
     17 C2          -2.7640     1.4540    -0.2960 c6         1 6KU       0.157300
     18 O2          -3.8750     1.4800    -1.1590 oh         1 6KU      -0.691000
     19 H41         -4.5610    -0.5890     0.3360 hc         1 6KU       0.060700
     20 H42         -3.8990    -0.9090     1.9390 hc         1 6KU       0.060700
     21 H5          -1.6960    -1.3840     1.0460 h1         1 6KU       0.053700
     22 H62         -3.4240    -3.1530     1.0220 h1         1 6KU       0.026700
     23 H61         -3.8080    -2.7590    -0.6540 h1         1 6KU       0.026700
     24 H31         -2.3530     0.9870     1.7310 h1         1 6KU       0.045700
     25 HAR          8.3270     0.1920    -0.9950 hc         1 6KU       0.031367
     26 HAS          9.0600     0.4880     0.5800 hc         1 6KU       0.031367
     27 HAT          8.2570    -1.0460     0.2550 hc         1 6KU       0.031367
     28 HAQ          6.8060     0.4580     1.6560 hc         1 6KU       0.036700
     29 HAU          6.8840     1.6930     0.4210 hc         1 6KU       0.036700
     30 HAV          5.7580     0.1450    -1.1950 hc         1 6KU       0.037200
     31 HAP          5.6700    -1.0840     0.0480 hc         1 6KU       0.037200
     32 HAO          4.2650     0.4390     1.4540 hc         1 6KU       0.038200
     33 HAW          4.3670     1.6750     0.2200 hc         1 6KU       0.038200
     34 HAX          3.2320     0.1410    -1.4050 hc         1 6KU       0.039700
     35 HAN          3.1070    -1.0820    -0.1580 hc         1 6KU       0.039700
     36 HAM          1.7220     0.4690     1.2320 hc         1 6KU       0.049200
     37 HAY          1.8660     1.7090    -0.0050 hc         1 6KU       0.049200
     38 HAZ          0.7220     0.2210    -1.6470 h1         1 6KU       0.034200
     39 HAL          0.5700    -1.0280    -0.4100 h1         1 6KU       0.034200
     40 H1          -1.4720     0.7830    -1.9020 h2         1 6KU       0.063700
     41 H63         -2.2140    -4.4540    -0.4560 ho         1 6KU       0.502000
     42 H32         -4.4580     1.5260     2.4320 ho         1 6KU       0.440000
     43 H21         -2.3260     2.4550    -0.1820 h1         1 6KU       0.058700
     44 H22         -3.6140     1.9090    -1.9790 ho         1 6KU       0.501000
@<TRIPOS>BOND
     1     1     2 1   
     2     1     4 1   
     3     1    19 1   
     4     1    20 1   
     5     2     3 1   
     6     2    14 1   
     7     2    21 1   
     8     3    15 1   
     9     3    22 1   
    10     3    23 1   
    11     4    16 1   
    12     4    17 1   
    13     4    24 1   
    14     5     6 1   
    15     5    25 1   
    16     5    26 1   
    17     5    27 1   
    18     6     7 1   
    19     6    28 1   
    20     6    29 1   
    21     7     8 1   
    22     7    30 1   
    23     7    31 1   
    24     8     9 1   
    25     8    32 1   
    26     8    33 1   
    27     9    10 1   
    28     9    34 1   
    29     9    35 1   
    30    10    11 1   
    31    10    36 1   
    32    10    37 1   
    33    11    12 1   
    34    11    38 1   
    35    11    39 1   
    36    12    13 1   
    37    13    14 1   
    38    13    17 1   
    39    13    40 1   
    40    15    41 1   
    41    16    42 1   
    42    17    18 1   
    43    17    43 1   
    44    18    44 1   
@<TRIPOS>SUBSTRUCTURE
     1 6KU         1 TEMP              0 ****  ****    0 ROOT
