@<TRIPOS>MOLECULE
6KV
   48    50     1     0     0
SMALL
abcg2


@<TRIPOS>ATOM
      1 N1          -3.2350    -4.9440    -0.1050 n1         1 6KV      -0.464000
      2 C3          -3.1740    -3.8130    -0.3050 c1         1 6KV       0.301900
      3 C2          -3.0950    -2.3800    -0.5310 c3         1 6KV      -0.047300
      4 C1          -3.2830    -1.5970     0.7770 c3         1 6KV       0.245800
      5 N           -3.2240    -0.1680     0.5620 nh         1 6KV      -0.789300
      6 C           -4.4660     0.5360     0.3120 c3         1 6KV       0.210100
      7 C4          -2.0160     0.4330     0.4590 ca         1 6KV       0.469900
      8 C9          -1.8140     1.8290     0.3330 ca         1 6KV      -0.377000
      9 S           -2.9110     3.1780     0.3060 ss         1 6KV       0.069400
     10 C8          -1.6030     4.2840     0.1730 cc         1 6KV      -0.139400
     11 C7          -0.3900     3.6870     0.1520 cd         1 6KV      -0.307800
     12 C6          -0.4830     2.2600     0.2500 ca         1 6KV       0.205800
     13 N3           0.5720     1.4410     0.2750 nb         1 6KV      -0.261000
     14 C5           0.2800     0.1510     0.3990 ca         1 6KV       0.434900
     15 N2          -0.9550    -0.3600     0.4870 nb         1 6KV      -0.347000
     16 N4           1.2920    -0.7530     0.4450 nh         1 6KV      -0.771300
     17 C10          0.9710    -2.1650     0.4830 c3         1 6KV       0.223100
     18 C11          2.6670    -0.3590     0.1770 c6         1 6KV       0.235500
     19 C16          3.1640    -0.8740    -1.1720 c6         1 6KV      -0.089400
     20 C15          4.6040    -0.4440    -1.4090 c6         1 6KV       0.166300
     21 N5           5.4730    -0.8860    -0.3350 n3         1 6KV      -0.716600
     22 C14          6.8530    -0.5570    -0.6130 c3         1 6KV       0.152100
     23 C13          5.0460    -0.3420     0.9400 c6         1 6KV       0.166300
     24 C12          3.6300    -0.7810     1.2830 c6         1 6KV      -0.089400
     25 H21C        -2.1180    -2.1540    -0.9600 hc         1 6KV       0.082200
     26 H22C        -3.8570    -2.1070    -1.2640 hc         1 6KV       0.082200
     27 H11C        -4.2540    -1.8330     1.2110 h1         1 6KV       0.066700
     28 H12C        -2.5210    -1.8970     1.4930 h1         1 6KV       0.066700
     29 HC1         -5.2740    -0.1880     0.2570 h1         1 6KV       0.047700
     30 HC2         -4.7150     1.2340     1.1140 h1         1 6KV       0.047700
     31 HC3         -4.4490     1.0680    -0.6390 h1         1 6KV       0.047700
     32 H8          -1.8120     5.3410     0.1160 h4         1 6KV       0.217000
     33 H7           0.5480     4.2180     0.0730 ha         1 6KV       0.216000
     34 H101         0.4800    -2.5070    -0.4320 h1         1 6KV       0.039700
     35 H102         1.8870    -2.7360     0.6040 h1         1 6KV       0.039700
     36 H103         0.3150    -2.4030     1.3190 h1         1 6KV       0.039700
     37 H11          2.6740     0.7300     0.1400 h1         1 6KV       0.091700
     38 H161         3.1030    -1.9660    -1.2110 hc         1 6KV       0.052700
     39 H162         2.5340    -0.4840    -1.9750 hc         1 6KV       0.052700
     40 H121         3.3270    -0.3300     2.2310 hc         1 6KV       0.052700
     41 H122         3.6190    -1.8650     1.4220 hc         1 6KV       0.052700
     42 H151         4.9630    -0.8700    -2.3490 h1         1 6KV       0.032700
     43 H152         4.6410     0.6550    -1.5280 h1         1 6KV       0.032700
     44 H141         7.0290     0.5260    -0.7120 h1         1 6KV       0.030367
     45 H142         7.4970    -0.9260     0.1860 h1         1 6KV       0.030367
     46 H143         7.1710    -1.0300    -1.5430 h1         1 6KV       0.030367
     47 H131         5.7340    -0.6870     1.7160 h1         1 6KV       0.032700
     48 H132         5.0970     0.7630     0.9430 h1         1 6KV       0.032700
@<TRIPOS>BOND
     1     1     2 3   
     2     2     3 1   
     3     3     4 1   
     4     3    25 1   
     5     3    26 1   
     6     4     5 1   
     7     4    27 1   
     8     4    28 1   
     9     5     6 1   
    10     5     7 1   
    11     6    29 1   
    12     6    30 1   
    13     6    31 1   
    14     7     8 ar  
    15     7    15 ar  
    16     8     9 1   
    17     8    12 ar  
    18     9    10 1   
    19    10    11 2   
    20    10    32 1   
    21    11    12 1   
    22    11    33 1   
    23    12    13 ar  
    24    13    14 ar  
    25    14    15 ar  
    26    14    16 1   
    27    16    17 1   
    28    16    18 1   
    29    17    34 1   
    30    17    35 1   
    31    17    36 1   
    32    18    19 1   
    33    18    24 1   
    34    18    37 1   
    35    19    20 1   
    36    19    38 1   
    37    19    39 1   
    38    20    21 1   
    39    20    42 1   
    40    20    43 1   
    41    21    22 1   
    42    21    23 1   
    43    22    44 1   
    44    22    45 1   
    45    22    46 1   
    46    23    24 1   
    47    23    47 1   
    48    23    48 1   
    49    24    40 1   
    50    24    41 1   
@<TRIPOS>SUBSTRUCTURE
     1 6KV         1 TEMP              0 ****  ****    0 ROOT
