@<TRIPOS>MOLECULE
6KV
   48    50     1     0     0
SMALL
No Charge or Current Charge


@<TRIPOS>ATOM
      1 N1          -3.9460    -4.9660     0.7360 n1         1 6KV      -0.464000
      2 C3          -3.7440    -3.9150     0.2750 c1         1 6KV       0.301900
      3 C2          -3.4970    -2.5820    -0.2740 c3         1 6KV      -0.047300
      4 C1          -3.5830    -1.4870     0.8080 c3         1 6KV       0.245800
      5 N           -3.3130    -0.1170     0.3020 nh         1 6KV      -0.789300
      6 C           -4.4370     0.5960    -0.3460 c3         1 6KV       0.210100
      7 C4          -2.0150     0.4420     0.3550 ca         1 6KV       0.469900
      8 C9          -1.7550     1.8070     0.5650 ca         1 6KV      -0.377000
      9 S           -2.9060     3.1470     0.8670 ss         1 6KV       0.069400
     10 C8          -1.5290     4.2770     1.0120 cc         1 6KV      -0.139400
     11 C7          -0.3260     3.6160     0.8490 cd         1 6KV      -0.307800
     12 C6          -0.4440     2.2070     0.6000 ca         1 6KV       0.205800
     13 N3           0.5920     1.3760     0.4510 nb         1 6KV      -0.261000
     14 C5           0.2660     0.0780     0.2590 ca         1 6KV       0.434900
     15 N2          -0.9890    -0.4190     0.2110 nb         1 6KV      -0.347000
     16 N4           1.3250    -0.8600     0.1040 nh         1 6KV      -0.771300
     17 C10          1.0780    -2.3180     0.2750 c3         1 6KV       0.223100
     18 C11          2.7290    -0.4030    -0.1730 c6         1 6KV       0.235500
     19 C16          3.4130    -1.2140    -1.3030 c6         1 6KV      -0.089400
     20 C15          4.8460    -0.6880    -1.5440 c6         1 6KV       0.166300
     21 N5           5.6560    -0.7340    -0.2950 n3         1 6KV      -0.716600
     22 C14          7.0650    -0.3470    -0.5260 c3         1 6KV       0.152100
     23 C13          5.0280     0.0510     0.8030 c6         1 6KV       0.166300
     24 C12          3.5950    -0.4430     1.1070 c6         1 6KV      -0.089400
     25 H21C        -2.5050    -2.5720    -0.7370 hc         1 6KV       0.082200
     26 H22C        -4.2290    -2.3840    -1.0630 hc         1 6KV       0.082200
     27 H11C        -4.5830    -1.5160     1.2630 h1         1 6KV       0.066700
     28 H12C        -2.8770    -1.7270     1.6170 h1         1 6KV       0.066700
     29 HC1         -5.1150    -0.1100    -0.8430 h1         1 6KV       0.047700
     30 HC2         -5.0140     1.1640     0.3960 h1         1 6KV       0.047700
     31 HC3         -4.0660     1.2890    -1.1130 h1         1 6KV       0.047700
     32 H8          -1.7190     5.3270     1.2090 h4         1 6KV       0.217000
     33 H7           0.6350     4.1200     0.9050 ha         1 6KV       0.216000
     34 H101         0.6880    -2.7530    -0.6550 h1         1 6KV       0.039700
     35 H102         1.9970    -2.8510     0.5500 h1         1 6KV       0.039700
     36 H103         0.3530    -2.5000     1.0800 h1         1 6KV       0.039700
     37 H11          2.7230     0.6390    -0.5290 h1         1 6KV       0.091700
     38 H161         3.4700    -2.2810    -1.0510 hc         1 6KV       0.052700
     39 H162         2.8300    -1.1350    -2.2290 hc         1 6KV       0.052700
     40 H121         3.1460     0.1880     1.8850 hc         1 6KV       0.052700
     41 H122         3.6390    -1.4630     1.5110 hc         1 6KV       0.052700
     42 H151         5.3180    -1.2990    -2.3270 h1         1 6KV       0.032700
     43 H152         4.7930     0.3430    -1.9260 h1         1 6KV       0.032700
     44 H141         7.1350     0.6970    -0.8600 h1         1 6KV       0.030367
     45 H142         7.6520    -0.4540     0.3960 h1         1 6KV       0.030367
     46 H143         7.5210    -0.9860    -1.2940 h1         1 6KV       0.030367
     47 H131         5.6300    -0.0290     1.7200 h1         1 6KV       0.032700
     48 H132         4.9900     1.1180     0.5340 h1         1 6KV       0.032700
@<TRIPOS>BOND
     1     1     2 3   
     2     2     3 1   
     3     3     4 1   
     4     3    25 1   
     5     3    26 1   
     6     4     5 1   
     7     4    27 1   
     8     4    28 1   
     9     5     6 1   
    10     5     7 1   
    11     6    29 1   
    12     6    30 1   
    13     6    31 1   
    14     7     8 ar  
    15     7    15 ar  
    16     8     9 1   
    17     8    12 ar  
    18     9    10 1   
    19    10    11 2   
    20    10    32 1   
    21    11    12 1   
    22    11    33 1   
    23    12    13 ar  
    24    13    14 ar  
    25    14    15 ar  
    26    14    16 1   
    27    16    17 1   
    28    16    18 1   
    29    17    34 1   
    30    17    35 1   
    31    17    36 1   
    32    18    19 1   
    33    18    24 1   
    34    18    37 1   
    35    19    20 1   
    36    19    38 1   
    37    19    39 1   
    38    20    21 1   
    39    20    42 1   
    40    20    43 1   
    41    21    22 1   
    42    21    23 1   
    43    22    44 1   
    44    22    45 1   
    45    22    46 1   
    46    23    24 1   
    47    23    47 1   
    48    23    48 1   
    49    24    40 1   
    50    24    41 1   
@<TRIPOS>SUBSTRUCTURE
     1 6KV         1 TEMP              0 ****  ****    0 ROOT
