@<TRIPOS>MOLECULE
6KW
   44    44     1     0     0
SMALL
bcc


@<TRIPOS>ATOM
      1 C4          -3.5680     0.4280    -0.8750 c6         1 6KW       0.119100
      2 C5          -2.4540     1.0260    -0.0160 c6         1 6KW       0.151100
      3 C6          -2.8410     2.3650     0.5740 c3         1 6KW       0.145400
      4 C3          -3.1920    -0.9910    -1.2920 c6         1 6KW      -0.105400
      5 CAR          8.0220     0.5860    -0.1120 c3         1 6KW      -0.088100
      6 CAQ          6.7560     0.0200    -0.7400 c3         1 6KW      -0.075400
      7 CAP          5.5400     0.1250     0.1730 c3         1 6KW      -0.075400
      8 CAO          4.2720    -0.4470    -0.4470 c3         1 6KW      -0.074400
      9 CAN          3.0440    -0.2930     0.4410 c3         1 6KW      -0.074400
     10 CAM          1.7820    -0.8630    -0.1940 c3         1 6KW      -0.080400
     11 CAL          0.5570    -0.6230     0.6650 c3         1 6KW       0.140400
     12 O1          -0.5750    -1.1570     0.0030 os         1 6KW      -0.442600
     13 C1          -1.7560    -1.1310     0.7360 c6         1 6KW       0.308900
     14 O5          -2.1600     0.1650     1.0720 os         1 6KW      -0.414600
     15 O6          -1.7240     2.9160     1.2310 oh         1 6KW      -0.592800
     16 O4          -3.7360     1.2680    -1.9970 oh         1 6KW      -0.598800
     17 C2          -2.8210    -1.8500    -0.0940 c6         1 6KW       0.133100
     18 O2          -3.9860    -2.0580     0.6730 oh         1 6KW      -0.588800
     19 H1          -4.4880     0.3970    -0.2740 h1         1 6KW       0.053700
     20 H2          -1.5670     1.1650    -0.6510 h1         1 6KW       0.068700
     21 H3          -3.1930     3.0130    -0.2370 h1         1 6KW       0.033700
     22 H4          -3.6870     2.2200     1.2600 h1         1 6KW       0.033700
     23 H5          -4.0150    -1.4590    -1.8390 hc         1 6KW       0.063700
     24 H6          -2.3390    -0.9460    -1.9730 hc         1 6KW       0.063700
     25 H7           7.8990     1.6390     0.1490 hc         1 6KW       0.031367
     26 H8           8.2830     0.0490     0.8020 hc         1 6KW       0.031367
     27 H9           8.8730     0.5130    -0.7910 hc         1 6KW       0.031367
     28 H10          6.5450     0.5410    -1.6790 hc         1 6KW       0.036200
     29 H11          6.9210    -1.0280    -1.0080 hc         1 6KW       0.036200
     30 H12          5.7500    -0.3890     1.1180 hc         1 6KW       0.037200
     31 H13          5.3750     1.1770     0.4310 hc         1 6KW       0.037200
     32 H14          4.0840     0.0450    -1.4080 hc         1 6KW       0.037700
     33 H15          4.4270    -1.5070    -0.6750 hc         1 6KW       0.037700
     34 H16          3.2280    -0.7820     1.4040 hc         1 6KW       0.039700
     35 H17          2.8930     0.7690     0.6630 hc         1 6KW       0.039700
     36 H18          1.6270    -0.4050    -1.1750 hc         1 6KW       0.049700
     37 H19          1.9080    -1.9370    -0.3620 hc         1 6KW       0.049700
     38 H20          0.6820    -1.1000     1.6470 h1         1 6KW       0.035200
     39 H21          0.4330     0.4510     0.8420 h1         1 6KW       0.035200
     40 H22         -1.6160    -1.6370     1.7040 h2         1 6KW       0.060700
     41 H23         -1.9770     3.7770     1.5750 ho         1 6KW       0.402000
     42 H24         -4.4830     0.9390    -2.5070 ho         1 6KW       0.407000
     43 H25         -2.4030    -2.8040    -0.4400 h1         1 6KW       0.052700
     44 H26         -3.7700    -2.6400     1.4080 ho         1 6KW       0.406000
@<TRIPOS>BOND
     1     1     2 1   
     2     1     4 1   
     3     1    16 1   
     4     1    19 1   
     5     2     3 1   
     6     2    14 1   
     7     2    20 1   
     8     3    15 1   
     9     3    21 1   
    10     3    22 1   
    11     4    17 1   
    12     4    23 1   
    13     4    24 1   
    14     5     6 1   
    15     5    25 1   
    16     5    26 1   
    17     5    27 1   
    18     6     7 1   
    19     6    28 1   
    20     6    29 1   
    21     7     8 1   
    22     7    30 1   
    23     7    31 1   
    24     8     9 1   
    25     8    32 1   
    26     8    33 1   
    27     9    10 1   
    28     9    34 1   
    29     9    35 1   
    30    10    11 1   
    31    10    36 1   
    32    10    37 1   
    33    11    12 1   
    34    11    38 1   
    35    11    39 1   
    36    12    13 1   
    37    13    14 1   
    38    13    17 1   
    39    13    40 1   
    40    15    41 1   
    41    16    42 1   
    42    17    18 1   
    43    17    43 1   
    44    18    44 1   
@<TRIPOS>SUBSTRUCTURE
     1 6KW         1 TEMP              0 ****  ****    0 ROOT
