@<TRIPOS>MOLECULE
6KW
   44    44     1     0     0
SMALL
No Charge or Current Charge


@<TRIPOS>ATOM
      1 C4          -3.6110     0.4140    -0.9170 c6         1 6KW       0.142300
      2 C5          -2.4600     1.0130    -0.0390 c6         1 6KW       0.174300
      3 C6          -2.7920     2.4560     0.4710 c3         1 6KW       0.168600
      4 C3          -3.2810    -1.0530    -1.3010 c6         1 6KW      -0.105400
      5 CAR          8.1440     0.5530    -0.1260 c3         1 6KW      -0.088100
      6 CAQ          6.8350     0.0680    -0.7770 c3         1 6KW      -0.075400
      7 CAP          5.6230     0.1360     0.1780 c3         1 6KW      -0.075400
      8 CAO          4.3100    -0.3500    -0.4750 c3         1 6KW      -0.074400
      9 CAN          3.0990    -0.2820     0.4800 c3         1 6KW      -0.074400
     10 CAM          1.7860    -0.7680    -0.1720 c3         1 6KW      -0.080400
     11 CAL          0.5790    -0.6990     0.7820 c3         1 6KW       0.163600
     12 O1          -0.5710    -1.1700     0.0620 os         1 6KW      -0.489000
     13 C1          -1.8160    -1.1910     0.7900 c6         1 6KW       0.355300
     14 O5          -2.2020     0.1650     1.1180 os         1 6KW      -0.461000
     15 O6          -1.7660     3.0230     1.3130 oh         1 6KW      -0.715000
     16 O4          -3.8210     1.1890    -2.1110 oh         1 6KW      -0.721000
     17 C2          -2.9540    -1.8980    -0.0400 c6         1 6KW       0.156300
     18 O2          -4.1710    -2.0700     0.7220 oh         1 6KW      -0.711000
     19 H1          -4.5300     0.4160    -0.3110 h1         1 6KW       0.053700
     20 H2          -1.5450     1.0760    -0.6450 h1         1 6KW       0.068700
     21 H3          -2.9510     3.1000    -0.4040 h1         1 6KW       0.033700
     22 H4          -3.7450     2.4120     1.0170 h1         1 6KW       0.033700
     23 H5          -4.1190    -1.5060    -1.8460 hc         1 6KW       0.063700
     24 H6          -2.4200    -1.0720    -1.9830 hc         1 6KW       0.063700
     25 H7           8.0530     1.5970     0.1980 hc         1 6KW       0.031367
     26 H8           8.3940    -0.0610     0.7480 hc         1 6KW       0.031367
     27 H9           8.9730     0.4860    -0.8400 hc         1 6KW       0.031367
     28 H10          6.6320     0.6780    -1.6660 hc         1 6KW       0.036200
     29 H11          6.9690    -0.9650    -1.1210 hc         1 6KW       0.036200
     30 H12          5.8300    -0.4730     1.0670 hc         1 6KW       0.037200
     31 H13          5.4930     1.1700     0.5210 hc         1 6KW       0.037200
     32 H14          4.1030     0.2590    -1.3640 hc         1 6KW       0.037700
     33 H15          4.4410    -1.3840    -0.8180 hc         1 6KW       0.037700
     34 H16          3.3060    -0.8910     1.3690 hc         1 6KW       0.039700
     35 H17          2.9680     0.7520     0.8240 hc         1 6KW       0.039700
     36 H18          1.5750    -0.1580    -1.0590 hc         1 6KW       0.049700
     37 H19          1.9130    -1.8030    -0.5130 hc         1 6KW       0.049700
     38 H20          0.7690    -1.3240     1.6650 h1         1 6KW       0.035200
     39 H21          0.4360     0.3380     1.1150 h1         1 6KW       0.035200
     40 H22         -1.6670    -1.7550     1.7230 h2         1 6KW       0.060700
     41 H23         -2.1040     3.8920     1.6320 ho         1 6KW       0.501000
     42 H24         -4.6060     0.8060    -2.5690 ho         1 6KW       0.506000
     43 H25         -2.5810    -2.8800    -0.3680 h1         1 6KW       0.052700
     44 H26         -3.9700    -2.6960     1.4560 ho         1 6KW       0.505000
@<TRIPOS>BOND
     1     1     2 1   
     2     1     4 1   
     3     1    16 1   
     4     1    19 1   
     5     2     3 1   
     6     2    14 1   
     7     2    20 1   
     8     3    15 1   
     9     3    21 1   
    10     3    22 1   
    11     4    17 1   
    12     4    23 1   
    13     4    24 1   
    14     5     6 1   
    15     5    25 1   
    16     5    26 1   
    17     5    27 1   
    18     6     7 1   
    19     6    28 1   
    20     6    29 1   
    21     7     8 1   
    22     7    30 1   
    23     7    31 1   
    24     8     9 1   
    25     8    32 1   
    26     8    33 1   
    27     9    10 1   
    28     9    34 1   
    29     9    35 1   
    30    10    11 1   
    31    10    36 1   
    32    10    37 1   
    33    11    12 1   
    34    11    38 1   
    35    11    39 1   
    36    12    13 1   
    37    13    14 1   
    38    13    17 1   
    39    13    40 1   
    40    15    41 1   
    41    16    42 1   
    42    17    18 1   
    43    17    43 1   
    44    18    44 1   
@<TRIPOS>SUBSTRUCTURE
     1 6KW         1 TEMP              0 ****  ****    0 ROOT
