@<TRIPOS>MOLECULE
6KX
   27    27     1     0     0
SMALL
abcg2


@<TRIPOS>ATOM
      1 C10         -1.4010     1.4270     0.1500 c          1 6KX       0.574100
      2 C02          0.9740     1.0680    -0.0980 c2         1 6KX      -0.045400
      3 C03         -0.2650     0.5210    -0.0340 ce         1 6KX      -0.210400
      4 C04         -0.5180    -0.9840    -0.0800 c6         1 6KX       0.013200
      5 C05          0.7620    -1.7280    -0.4890 c6         1 6KX      -0.074400
      6 C06          1.9890    -1.2230     0.2430 c6         1 6KX      -0.070400
      7 C07          2.2170     0.2290    -0.1260 c6         1 6KX      -0.053200
      8 C08         -0.9770    -1.4900     1.2950 c3         1 6KX      -0.083600
      9 C09         -1.5800    -1.3280    -1.1350 c3         1 6KX      -0.083600
     10 O11         -2.5490     1.0980     0.3820 o          1 6KX      -0.530100
     11 H1          -1.1670     2.5000     0.0920 h4         1 6KX      -0.018800
     12 H3           1.5660     2.8740     0.8850 hc         1 6KX       0.048033
     13 H4           2.1670     2.7060    -0.7480 hc         1 6KX       0.048033
     14 H5           0.5010     3.1830    -0.4830 hc         1 6KX       0.048033
     15 H8           0.6140    -2.7980    -0.3140 hc         1 6KX       0.042700
     16 H9           0.9200    -1.6090    -1.5670 hc         1 6KX       0.042700
     17 H10          1.8570    -1.3210     1.3230 hc         1 6KX       0.045200
     18 H11          2.8680    -1.8170    -0.0180 hc         1 6KX       0.045200
     19 H12          2.6410     0.3020    -1.1350 hc         1 6KX       0.050700
     20 H13          2.9600     0.6940     0.5290 hc         1 6KX       0.050700
     21 H14         -1.1940    -2.5590     1.2480 hc         1 6KX       0.038867
     22 H15         -0.2080    -1.3380     2.0540 hc         1 6KX       0.038867
     23 H16         -1.8800    -0.9830     1.6290 hc         1 6KX       0.038867
     24 H17         -1.3130    -0.9070    -2.1070 hc         1 6KX       0.038867
     25 H18         -1.6350    -2.4130    -1.2540 hc         1 6KX       0.038867
     26 H19         -2.5730    -0.9740    -0.8700 hc         1 6KX       0.038867
     27 C01          1.2930     2.5380    -0.1180 c3         1 6KX      -0.070900
@<TRIPOS>BOND
     1     1     3 1   
     2     1    10 2   
     3     1    11 1   
     4     2     3 2   
     5     2     7 1   
     6     2    27 1   
     7     3     4 1   
     8     4     5 1   
     9     4     8 1   
    10     4     9 1   
    11     5     6 1   
    12     5    15 1   
    13     5    16 1   
    14     6     7 1   
    15     6    17 1   
    16     6    18 1   
    17     7    19 1   
    18     7    20 1   
    19     8    21 1   
    20     8    22 1   
    21     8    23 1   
    22     9    24 1   
    23     9    25 1   
    24     9    26 1   
    25    12    27 1   
    26    13    27 1   
    27    14    27 1   
@<TRIPOS>SUBSTRUCTURE
     1 6KX         1 TEMP              0 ****  ****    0 ROOT
