@<TRIPOS>MOLECULE
6KX
   27    27     1     0     0
SMALL
No Charge or Current Charge


@<TRIPOS>ATOM
      1 C10         -1.4530     1.5080     0.0810 c          1 6KX       0.574100
      2 C02          1.0080     1.0690    -0.0700 c2         1 6KX      -0.045400
      3 C03         -0.2650     0.5560    -0.0570 ce         1 6KX      -0.210400
      4 C04         -0.5390    -0.9860    -0.0900 c6         1 6KX       0.013200
      5 C05          0.7690    -1.7550    -0.5320 c6         1 6KX      -0.074400
      6 C06          2.0790    -1.2720     0.1610 c6         1 6KX      -0.070400
      7 C07          2.2820     0.2150    -0.1700 c6         1 6KX      -0.053200
      8 C08         -0.9590    -1.4490     1.3380 c3         1 6KX      -0.083600
      9 C09         -1.6710    -1.3820    -1.0920 c3         1 6KX      -0.083600
     10 O11         -2.6220     1.1610     0.2100 o          1 6KX      -0.530100
     11 H1          -1.2400     2.6080     0.0810 h4         1 6KX      -0.018800
     12 H3           0.9990     3.0020     0.9270 hc         1 6KX       0.048033
     13 H4           2.3940     2.7670    -0.1270 hc         1 6KX       0.048033
     14 H5           0.8190     3.0970    -0.8370 hc         1 6KX       0.048033
     15 H8           0.6450    -2.8330    -0.3580 hc         1 6KX       0.042700
     16 H9           0.9000    -1.6480    -1.6180 hc         1 6KX       0.042700
     17 H10          2.0050    -1.4110     1.2470 hc         1 6KX       0.045200
     18 H11          2.9410    -1.8620    -0.1810 hc         1 6KX       0.045200
     19 H12          2.6820     0.3060    -1.1900 hc         1 6KX       0.050700
     20 H13          3.0580     0.6140     0.4970 hc         1 6KX       0.050700
     21 H14         -1.0890    -2.5370     1.3830 hc         1 6KX       0.038867
     22 H15         -0.2080    -1.1750     2.0870 hc         1 6KX       0.038867
     23 H16         -1.9070    -0.9970     1.6520 hc         1 6KX       0.038867
     24 H17         -1.5170    -0.9090    -2.0700 hc         1 6KX       0.038867
     25 H18         -1.6900    -2.4670    -1.2540 hc         1 6KX       0.038867
     26 H19         -2.6730    -1.1120    -0.7420 hc         1 6KX       0.038867
     27 C01          1.3220     2.5600    -0.0230 c3         1 6KX      -0.070900
@<TRIPOS>BOND
     1     1     3 1   
     2     1    10 2   
     3     1    11 1   
     4     2     3 2   
     5     2     7 1   
     6     2    27 1   
     7     3     4 1   
     8     4     5 1   
     9     4     8 1   
    10     4     9 1   
    11     5     6 1   
    12     5    15 1   
    13     5    16 1   
    14     6     7 1   
    15     6    17 1   
    16     6    18 1   
    17     7    19 1   
    18     7    20 1   
    19     8    21 1   
    20     8    22 1   
    21     8    23 1   
    22     9    24 1   
    23     9    25 1   
    24     9    26 1   
    25    12    27 1   
    26    13    27 1   
    27    14    27 1   
@<TRIPOS>SUBSTRUCTURE
     1 6KX         1 TEMP              0 ****  ****    0 ROOT
