@<TRIPOS>MOLECULE
6KY
   25    24     1     0     0
SMALL
No Charge or Current Charge


@<TRIPOS>ATOM
      1 N           -1.8900    -1.3590     0.1970 n3         1 6KY      -0.755600
      2 CA          -1.6230     0.1180     0.3980 c3         1 6KY       0.057500
      3 C           -2.7410     1.1300    -0.0900 c          1 6KY       0.701000
      4 O           -2.7450     1.5010    -1.2590 o          1 6KY      -0.729000
      5 CB          -0.2250     0.5610    -0.1190 c3         1 6KY      -0.061400
      6 CG           0.9380    -0.2480     0.4880 c3         1 6KY       0.173600
      7 SE           2.5720     0.4200    -0.0930 ss         1 6KY      -0.620000
      8 CE           3.7140    -0.7500     0.7810 c3         1 6KY       0.111900
      9 CN1         -3.0590    -1.8350     0.9700 c3         1 6KY       0.184100
     10 CN2         -1.9630    -1.7760    -1.2240 c3         1 6KY       0.184100
     11 HA          -1.5750     0.2780     1.4850 h1         1 6KY       0.034700
     12 HB1         -0.1830     0.4950    -1.2120 hc         1 6KY       0.058700
     13 HG1          0.8950    -0.1920     1.5830 h1         1 6KY       0.052700
     14 OXT         -3.5510     1.5390     0.7330 o          1 6KY      -0.729000
     15 H1          -0.0810     1.6180     0.1350 hc         1 6KY       0.058700
     16 H2           0.8550    -1.3020     0.1920 h1         1 6KY       0.052700
     17 H3           3.5650    -0.6780     1.8660 h1         1 6KY       0.043367
     18 H4           3.5140    -1.7800     0.4580 h1         1 6KY       0.043367
     19 H5           4.7560    -0.4980     0.5460 h1         1 6KY       0.043367
     20 H6          -3.9880    -1.3840     0.5950 h1         1 6KY       0.016033
     21 H7          -3.1530    -2.9270     0.8940 h1         1 6KY       0.016033
     22 H8          -2.9530    -1.5790     2.0320 h1         1 6KY       0.016033
     23 H9          -2.8030    -1.2870    -1.7350 h1         1 6KY       0.016033
     24 H10         -1.0380    -1.5300    -1.7610 h1         1 6KY       0.016033
     25 H11         -2.1060    -2.8630    -1.2980 h1         1 6KY       0.016033
@<TRIPOS>BOND
     1     1     2 1   
     2     1     9 1   
     3     1    10 1   
     4     2     3 1   
     5     2     5 1   
     6     2    11 1   
     7     3     4 1   
     8     3    14 1   
     9     5     6 1   
    10     5    12 1   
    11     5    15 1   
    12     6     7 1   
    13     6    13 1   
    14     6    16 1   
    15     7     8 1   
    16     8    17 1   
    17     8    18 1   
    18     8    19 1   
    19     9    20 1   
    20     9    21 1   
    21     9    22 1   
    22    10    23 1   
    23    10    24 1   
    24    10    25 1   
@<TRIPOS>SUBSTRUCTURE
     1 6KY         1 TEMP              0 ****  ****    0 ROOT
