@<TRIPOS>MOLECULE
6KY
   25    24     1     0     0
SMALL
abcg2


@<TRIPOS>ATOM
      1 N           -1.8740    -1.2730     0.1220 n3         1 6KY      -0.755600
      2 CA          -1.6770     0.1360     0.4110 c3         1 6KY       0.057500
      3 C           -2.7690     1.1330    -0.0670 c          1 6KY       0.701000
      4 O           -3.6830     0.7110    -0.7980 o          1 6KY      -0.729000
      5 CB          -0.2970     0.6200    -0.0550 c3         1 6KY      -0.061400
      6 CG           0.8290    -0.2340     0.5060 c3         1 6KY       0.173600
      7 SE           2.5710     0.4610    -0.0720 ss         1 6KY      -0.620000
      8 CE           3.6810    -0.8540     0.8490 c3         1 6KY       0.111900
      9 CN1         -2.9610    -1.8710     0.8580 c3         1 6KY       0.184100
     10 CN2         -1.8800    -1.6660    -1.2680 c3         1 6KY       0.184100
     11 HA          -1.6660     0.2100     1.5080 h1         1 6KY       0.034700
     12 HB1         -0.2460     0.6450    -1.1480 hc         1 6KY       0.058700
     13 HG1          0.7980    -0.2280     1.5990 h1         1 6KY       0.052700
     14 OXT         -2.6310     2.3060     0.3410 o          1 6KY      -0.729000
     15 H1          -0.1840     1.6530     0.2770 hc         1 6KY       0.058700
     16 H2           0.7400    -1.2690     0.1770 h1         1 6KY       0.052700
     17 H3           3.5510    -0.7820     1.9280 h1         1 6KY       0.043367
     18 H4           3.4350    -1.8630     0.5210 h1         1 6KY       0.043367
     19 H5           4.7240    -0.6510     0.6070 h1         1 6KY       0.043367
     20 H6          -3.9560    -1.5420     0.5340 h1         1 6KY       0.016033
     21 H7          -2.9210    -2.9590     0.7570 h1         1 6KY       0.016033
     22 H8          -2.8620    -1.6410     1.9210 h1         1 6KY       0.016033
     23 H9          -2.7910    -1.3870    -1.8090 h1         1 6KY       0.016033
     24 H10         -1.0330    -1.2310    -1.8000 h1         1 6KY       0.016033
     25 H11         -1.7680    -2.7520    -1.3370 h1         1 6KY       0.016033
@<TRIPOS>BOND
     1     1     2 1   
     2     1     9 1   
     3     1    10 1   
     4     2     3 1   
     5     2     5 1   
     6     2    11 1   
     7     3     4 1   
     8     3    14 1   
     9     5     6 1   
    10     5    12 1   
    11     5    15 1   
    12     6     7 1   
    13     6    13 1   
    14     6    16 1   
    15     7     8 1   
    16     8    17 1   
    17     8    18 1   
    18     8    19 1   
    19     9    20 1   
    20     9    21 1   
    21     9    22 1   
    22    10    23 1   
    23    10    24 1   
    24    10    25 1   
@<TRIPOS>SUBSTRUCTURE
     1 6KY         1 TEMP              0 ****  ****    0 ROOT
