@<TRIPOS>MOLECULE
6KZ
   66    68     1     0     0
SMALL
No Charge or Current Charge


@<TRIPOS>ATOM
      1 C3          -5.8010    -1.2630    -1.0180 c6         1 6KZ       0.069500
      2 C2          -6.3680    -2.5840    -1.5950 c6         1 6KZ       0.129600
      3 O1          -5.4830    -3.1260    -2.5910 os         1 6KZ      -0.446000
      4 C6          -4.2030    -3.4750    -2.0390 c6         1 6KZ       0.129600
      5 C5          -3.4780    -2.2210    -1.4840 c6         1 6KZ       0.069500
      6 N4          -4.3370    -1.2750    -0.6910 n          1 6KZ      -0.424800
      7 C7          -3.7870    -0.2090     0.0480 c          1 6KZ       0.654100
      8 O28         -4.4860     0.6460     0.5670 o          1 6KZ      -0.649100
      9 N8          -2.4170    -0.1900     0.1440 ns         1 6KZ      -0.483900
     10 C9          -1.6150     0.8130     0.8800 c3         1 6KZ       0.038700
     11 C27         -1.1400     0.2460     2.2490 c3         1 6KZ      -0.085400
     12 C31         -2.2570    -0.0590     3.2860 c3         1 6KZ      -0.054700
     13 C33         -1.6890    -0.8370     4.4940 c3         1 6KZ      -0.090600
     14 C32         -2.9920     1.2180     3.7600 c3         1 6KZ      -0.090600
     15 C10         -0.4000     1.2530     0.0160 c          1 6KZ       0.585100
     16 O29         -0.0110     0.6270    -0.9630 o          1 6KZ      -0.601100
     17 N11          0.2230     2.4140     0.4320 ns         1 6KZ      -0.504900
     18 C12          1.4110     3.0090    -0.2060 c3         1 6KZ       0.076700
     19 C13          1.2390     4.5430    -0.3520 c3         1 6KZ      -0.084400
     20 C14          0.0160     4.9580    -1.1990 c3         1 6KZ      -0.095100
     21 C15          2.7260     2.6120     0.5300 c3         1 6KZ       0.134000
     22 O30          2.6870     3.0750     1.9090 oh         1 6KZ      -0.639000
     23 C16          3.0170     1.1160     0.4130 cc         1 6KZ       0.529300
     24 N20          3.7000     0.6290    -0.6640 nc         1 6KZ      -0.708000
     25 N17          2.6350     0.2330     1.3250 nd         1 6KZ      -0.390300
     26 O18          3.1070    -0.9830     0.7840 os         1 6KZ      -0.089700
     27 C19          3.7190    -0.6580    -0.3910 cd         1 6KZ       0.562500
     28 C21          4.3300    -1.7230    -1.2130 ca         1 6KZ      -0.158500
     29 C22          4.2810    -3.0750    -0.8010 ca         1 6KZ      -0.058000
     30 C23          4.8660    -4.0820    -1.5890 ca         1 6KZ      -0.123000
     31 C24          5.5040    -3.7540    -2.7950 ca         1 6KZ      -0.081000
     32 C25          5.5590    -2.4160    -3.2140 ca         1 6KZ      -0.123000
     33 C26          4.9760    -1.4050    -2.4290 ca         1 6KZ      -0.058000
     34 H15          3.5490     3.1190     0.0070 h1         1 6KZ       0.103700
     35 H31C        -5.9820    -0.4610    -1.7480 h1         1 6KZ       0.063200
     36 H32C        -6.3740    -1.0070    -0.1160 h1         1 6KZ       0.063200
     37 H21C        -6.4960    -3.3200    -0.7880 h1         1 6KZ       0.053950
     38 H22C        -7.3550    -2.4030    -2.0450 h1         1 6KZ       0.053950
     39 H61C        -4.3480    -4.2090    -1.2320 h1         1 6KZ       0.053950
     40 H62C        -3.5880    -3.9490    -2.8180 h1         1 6KZ       0.053950
     41 H51C        -2.6410    -2.5720    -0.8630 h1         1 6KZ       0.063200
     42 H52C        -3.0450    -1.6690    -2.3300 h1         1 6KZ       0.063200
     43 H8          -1.9190    -0.9110    -0.3610 hn         1 6KZ       0.312500
     44 H9          -2.2200     1.7140     1.0430 h1         1 6KZ       0.077700
     45 H271        -0.5690    -0.6710     2.0560 hc         1 6KZ       0.059700
     46 H272        -0.4330     0.9500     2.7040 hc         1 6KZ       0.059700
     47 H31         -2.9990    -0.7120     2.8100 hc         1 6KZ       0.045700
     48 H331        -0.9350    -0.2410     5.0240 hc         1 6KZ       0.035033
     49 H332        -2.4860    -1.0890     5.2040 hc         1 6KZ       0.035033
     50 H333        -1.2200    -1.7730     4.1690 hc         1 6KZ       0.035033
     51 H321        -3.4820     1.7320     2.9260 hc         1 6KZ       0.035033
     52 H322        -3.7680     0.9660     4.4930 hc         1 6KZ       0.035033
     53 H323        -2.2930     1.9190     4.2310 hc         1 6KZ       0.035033
     54 H11         -0.1760     2.8860     1.2350 hn         1 6KZ       0.315500
     55 H12          1.4900     2.6080    -1.2280 h1         1 6KZ       0.100700
     56 H131         1.1550     5.0020     0.6410 hc         1 6KZ       0.049200
     57 H132         2.1410     4.9600    -0.8160 hc         1 6KZ       0.049200
     58 H141        -0.0190     6.0490    -1.3080 hc         1 6KZ       0.042367
     59 H142         0.0700     4.5170    -2.2020 hc         1 6KZ       0.042367
     60 H143        -0.9210     4.6360    -0.7290 hc         1 6KZ       0.042367
     61 H30          2.1960     2.3960     2.4230 ho         1 6KZ       0.454000
     62 H22          3.7920    -3.3550     0.1310 ha         1 6KZ       0.134500
     63 H26          5.0280    -0.3730    -2.7710 ha         1 6KZ       0.134500
     64 H23          4.8230    -5.1190    -1.2630 ha         1 6KZ       0.120000
     65 H24          5.9560    -4.5350    -3.4040 ha         1 6KZ       0.116000
     66 H25          6.0530    -2.1590    -4.1490 ha         1 6KZ       0.120000
@<TRIPOS>BOND
     1     1     2 1   
     2     1     6 1   
     3     1    35 1   
     4     1    36 1   
     5     2     3 1   
     6     2    37 1   
     7     2    38 1   
     8     3     4 1   
     9     4     5 1   
    10     4    39 1   
    11     4    40 1   
    12     5     6 1   
    13     5    41 1   
    14     5    42 1   
    15     6     7 1   
    16     7     8 2   
    17     7     9 1   
    18     9    10 1   
    19     9    43 1   
    20    10    11 1   
    21    10    15 1   
    22    10    44 1   
    23    11    12 1   
    24    11    45 1   
    25    11    46 1   
    26    12    13 1   
    27    12    14 1   
    28    12    47 1   
    29    13    48 1   
    30    13    49 1   
    31    13    50 1   
    32    14    51 1   
    33    14    52 1   
    34    14    53 1   
    35    15    16 2   
    36    15    17 1   
    37    17    18 1   
    38    17    54 1   
    39    18    19 1   
    40    18    21 1   
    41    18    55 1   
    42    19    20 1   
    43    19    56 1   
    44    19    57 1   
    45    20    58 1   
    46    20    59 1   
    47    20    60 1   
    48    21    22 1   
    49    21    23 1   
    50    21    34 1   
    51    22    61 1   
    52    23    24 1   
    53    23    25 2   
    54    24    27 2   
    55    25    26 1   
    56    26    27 1   
    57    27    28 1   
    58    28    29 ar  
    59    28    33 ar  
    60    29    30 ar  
    61    29    62 1   
    62    30    31 ar  
    63    30    64 1   
    64    31    32 ar  
    65    31    65 1   
    66    32    33 ar  
    67    32    66 1   
    68    33    63 1   
@<TRIPOS>SUBSTRUCTURE
     1 6KZ         1 TEMP              0 ****  ****    0 ROOT
