@<TRIPOS>MOLECULE
6KZ
   66    68     1     0     0
SMALL
abcg2


@<TRIPOS>ATOM
      1 C3          -4.5850    -0.6120    -2.4580 c6         1 6KZ       0.069500
      2 C2          -6.0380    -0.9150    -2.1400 c6         1 6KZ       0.129600
      3 O1          -6.2180    -2.2790    -1.8220 os         1 6KZ      -0.446000
      4 C6          -5.4220    -2.6600    -0.7240 c6         1 6KZ       0.129600
      5 C5          -3.9440    -2.4140    -0.9860 c6         1 6KZ       0.069500
      6 N4          -3.7360    -1.0260    -1.3570 n          1 6KZ      -0.424800
      7 C7          -3.0270    -0.1070    -0.6460 c          1 6KZ       0.654100
      8 O28         -3.0930     1.0980    -0.8710 o          1 6KZ      -0.649100
      9 N8          -2.2310    -0.5890     0.3560 ns         1 6KZ      -0.483900
     10 C9          -1.3690     0.3240     1.0590 c3         1 6KZ       0.038700
     11 C27         -0.6180    -0.4230     2.1640 c3         1 6KZ      -0.085400
     12 C31         -1.5080    -1.1370     3.1830 c3         1 6KZ      -0.054700
     13 C33         -0.6330    -1.8770     4.1910 c3         1 6KZ      -0.090600
     14 C32         -2.4550    -0.1780     3.8940 c3         1 6KZ      -0.090600
     15 C10         -0.3470     0.9510     0.1130 c          1 6KZ       0.585100
     16 O29          0.1920     0.2950    -0.7620 o          1 6KZ      -0.601100
     17 N11         -0.0520     2.2390     0.3700 ns         1 6KZ      -0.504900
     18 C12          0.9210     3.0130    -0.3710 c3         1 6KZ       0.076700
     19 C13          0.3870     4.4130    -0.6520 c3         1 6KZ      -0.084400
     20 C14         -0.8360     4.3950    -1.5590 c3         1 6KZ      -0.095100
     21 C15          2.2630     3.0380     0.3890 c3         1 6KZ       0.134000
     22 O30          2.1540     3.6130     1.6590 oh         1 6KZ      -0.639000
     23 C16          2.8160     1.6480     0.4500 cc         1 6KZ       0.529300
     24 N20          3.3320     1.0060    -0.6310 nc         1 6KZ      -0.708000
     25 N17          2.7920     0.9310     1.5290 nd         1 6KZ      -0.390300
     26 O18          3.3140    -0.2700     1.1330 os         1 6KZ      -0.089700
     27 C19          3.6140    -0.1640    -0.1550 cd         1 6KZ       0.562500
     28 C21          4.1960    -1.3010    -0.8500 ca         1 6KZ      -0.158500
     29 C22          4.5290    -2.4740    -0.1710 ca         1 6KZ      -0.058000
     30 C23          5.0850    -3.5360    -0.8660 ca         1 6KZ      -0.123000
     31 C24          5.3090    -3.4380    -2.2330 ca         1 6KZ      -0.081000
     32 C25          4.9760    -2.2710    -2.9100 ca         1 6KZ      -0.123000
     33 C26          4.4230    -1.2040    -2.2230 ca         1 6KZ      -0.058000
     34 H15          2.9640     3.6520    -0.1830 h1         1 6KZ       0.103700
     35 H31C        -4.2810    -1.1530    -3.3610 h1         1 6KZ       0.063200
     36 H32C        -4.4570     0.4500    -2.6500 h1         1 6KZ       0.063200
     37 H21C        -6.3690    -0.2790    -1.3080 h1         1 6KZ       0.053950
     38 H22C        -6.6660    -0.6960    -3.0050 h1         1 6KZ       0.053950
     39 H61C        -5.7220    -2.1100     0.1800 h1         1 6KZ       0.053950
     40 H62C        -5.5950    -3.7220    -0.5450 h1         1 6KZ       0.053950
     41 H51C        -3.3890    -2.6850    -0.0910 h1         1 6KZ       0.063200
     42 H52C        -3.5920    -3.0620    -1.7950 h1         1 6KZ       0.063200
     43 H8          -1.8850    -1.5320     0.2800 hn         1 6KZ       0.312500
     44 H9          -1.9790     1.1110     1.5130 h1         1 6KZ       0.077700
     45 H271         0.0560    -1.1480     1.6960 hc         1 6KZ       0.059700
     46 H272         0.0240     0.2940     2.6860 hc         1 6KZ       0.059700
     47 H31         -2.1140    -1.8830     2.6570 hc         1 6KZ       0.045700
     48 H331        -0.0230    -1.1780     4.7660 hc         1 6KZ       0.035033
     49 H332        -1.2420    -2.4430     4.8970 hc         1 6KZ       0.035033
     50 H333         0.0420    -2.5780     3.6970 hc         1 6KZ       0.035033
     51 H321        -3.1350     0.3190     3.2010 hc         1 6KZ       0.035033
     52 H322        -3.0690    -0.7090     4.6230 hc         1 6KZ       0.035033
     53 H323        -1.8990     0.5960     4.4290 hc         1 6KZ       0.035033
     54 H11         -0.6270     2.7290     1.0390 hn         1 6KZ       0.315500
     55 H12          1.0950     2.5100    -1.3260 h1         1 6KZ       0.100700
     56 H131         0.1530     4.9190     0.2890 hc         1 6KZ       0.049200
     57 H132         1.1840     4.9940    -1.1230 hc         1 6KZ       0.049200
     58 H141        -1.1980     5.4060    -1.7420 hc         1 6KZ       0.042367
     59 H142        -0.5990     3.9470    -2.5260 hc         1 6KZ       0.042367
     60 H143        -1.6550     3.8230    -1.1230 hc         1 6KZ       0.042367
     61 H30          1.5440     3.0860     2.1890 ho         1 6KZ       0.454000
     62 H22          4.3610    -2.5670     0.8930 ha         1 6KZ       0.134500
     63 H26          4.1610    -0.2950    -2.7490 ha         1 6KZ       0.134500
     64 H23          5.3460    -4.4430    -0.3380 ha         1 6KZ       0.120000
     65 H24          5.7420    -4.2710    -2.7710 ha         1 6KZ       0.116000
     66 H25          5.1480    -2.1910    -3.9750 ha         1 6KZ       0.120000
@<TRIPOS>BOND
     1     1     2 1   
     2     1     6 1   
     3     1    35 1   
     4     1    36 1   
     5     2     3 1   
     6     2    37 1   
     7     2    38 1   
     8     3     4 1   
     9     4     5 1   
    10     4    39 1   
    11     4    40 1   
    12     5     6 1   
    13     5    41 1   
    14     5    42 1   
    15     6     7 1   
    16     7     8 2   
    17     7     9 1   
    18     9    10 1   
    19     9    43 1   
    20    10    11 1   
    21    10    15 1   
    22    10    44 1   
    23    11    12 1   
    24    11    45 1   
    25    11    46 1   
    26    12    13 1   
    27    12    14 1   
    28    12    47 1   
    29    13    48 1   
    30    13    49 1   
    31    13    50 1   
    32    14    51 1   
    33    14    52 1   
    34    14    53 1   
    35    15    16 2   
    36    15    17 1   
    37    17    18 1   
    38    17    54 1   
    39    18    19 1   
    40    18    21 1   
    41    18    55 1   
    42    19    20 1   
    43    19    56 1   
    44    19    57 1   
    45    20    58 1   
    46    20    59 1   
    47    20    60 1   
    48    21    22 1   
    49    21    23 1   
    50    21    34 1   
    51    22    61 1   
    52    23    24 1   
    53    23    25 2   
    54    24    27 2   
    55    25    26 1   
    56    26    27 1   
    57    27    28 1   
    58    28    29 ar  
    59    28    33 ar  
    60    29    30 ar  
    61    29    62 1   
    62    30    31 ar  
    63    30    64 1   
    64    31    32 ar  
    65    31    65 1   
    66    32    33 ar  
    67    32    66 1   
    68    33    63 1   
@<TRIPOS>SUBSTRUCTURE
     1 6KZ         1 TEMP              0 ****  ****    0 ROOT
