@<TRIPOS>MOLECULE
6L0
   88    88     1     0     0
SMALL
No Charge or Current Charge


@<TRIPOS>ATOM
      1 CBA         -1.5510    -2.4410     2.0320 c3         1 6L0      -0.138400
      2 CAX         -2.4030    -1.2360     2.5180 c3         1 6L0      -0.149400
      3 CBJ         -2.3160    -0.0520     1.5470 c          1 6L0       0.620100
      4 OAC         -1.2990     0.6130     1.4150 o          1 6L0      -0.613100
      5 NBG         -3.4780     0.2280     0.8650 ns         1 6L0      -0.499900
      6 CAU         -3.6670     1.3540    -0.0530 c3         1 6L0       0.101000
      7 CAO         -3.6850     2.7110     0.6840 c3         1 6L0      -0.103400
      8 CAL         -4.1600     3.9010    -0.1810 c3         1 6L0      -0.061400
      9 CAR         -3.2770     4.1900    -1.4200 c3         1 6L0      -0.100400
     10 CBC         -3.7230     5.4310    -2.2280 c3         1 6L0       0.129000
     11 NBO         -3.6450     6.7080    -1.4740 n          1 6L0      -0.268300
     12 OAH         -4.9160     7.1790    -0.9590 oh         1 6L0      -0.457100
     13 CBL         -2.5330     7.6060    -1.5090 c          1 6L0       0.601100
     14 OAE         -2.6560     8.7560    -1.0980 o          1 6L0      -0.628100
     15 CAZ         -1.1640     7.1380    -2.0590 c3         1 6L0      -0.130400
     16 CAW         -0.0450     7.1320    -0.9790 c3         1 6L0      -0.150900
     17 CBH         -0.1520     5.9240    -0.0420 c          1 6L0       0.597100
     18 NBE          0.7410     4.9120    -0.3040 ns         1 6L0      -0.504900
     19 CAS          0.8520     3.6730     0.4670 c3         1 6L0       0.102000
     20 CAM          2.0440     2.8290    -0.0240 c3         1 6L0      -0.076200
     21 CAJ          2.2420     1.5570     0.7740 c2         1 6L0      -0.164200
     22 CAP          3.3490     1.2520     1.4720 c2         1 6L0      -0.281200
     23 CBB          3.5810    -0.0430     2.2230 c3         1 6L0       0.142200
     24 NBN          4.1930    -1.0690     1.3550 n          1 6L0      -0.281300
     25 OAG          5.6350    -1.0500     1.2820 oh         1 6L0      -0.421100
     26 CBK          3.4250    -1.9840     0.5820 c          1 6L0       0.622100
     27 OAD          2.2010    -1.9470     0.6080 o          1 6L0      -0.583100
     28 CAY          4.1830    -2.9880    -0.3170 c3         1 6L0      -0.137400
     29 CAV          3.3320    -4.1450    -0.9210 c3         1 6L0      -0.150900
     30 CBI          3.1320    -5.3600     0.0080 c          1 6L0       0.611100
     31 OAB          3.1880    -5.2650     1.2250 o          1 6L0      -0.605100
     32 NBF          3.0120    -6.6100    -0.5620 ns         1 6L0      -0.511900
     33 CAT          2.4740    -6.9080    -1.8960 c3         1 6L0       0.111000
     34 CAN          1.1520    -7.7100    -1.8360 c3         1 6L0      -0.092400
     35 CAK         -0.0170    -7.0140    -1.0930 c3         1 6L0      -0.072400
     36 CAQ         -0.4920    -5.6950    -1.7600 c3         1 6L0      -0.088400
     37 CBD         -1.6230    -4.9390    -1.0110 c3         1 6L0       0.106000
     38 NBP         -1.2240    -4.1580     0.1920 n          1 6L0      -0.294300
     39 CBM         -2.0880    -3.2130     0.8080 c          1 6L0       0.621100
     40 OAF         -3.2210    -3.0250     0.3790 o          1 6L0      -0.604100
     41 OAI          0.0870    -4.4050     0.7390 oh         1 6L0      -0.411100
     42 H1          -0.5130    -2.1490     1.8370 hc         1 6L0       0.087200
     43 H2          -1.4190    -3.1780     2.8320 hc         1 6L0       0.087200
     44 H3          -3.4430    -1.5560     2.6510 hc         1 6L0       0.055200
     45 H4          -2.0000    -0.9100     3.4840 hc         1 6L0       0.055200
     46 H5          -4.2570    -0.3990     1.0260 hn         1 6L0       0.306500
     47 H6          -2.8650     1.3430    -0.8020 h1         1 6L0       0.053700
     48 H7          -4.6230     1.2100    -0.5750 h1         1 6L0       0.053700
     49 H8          -4.3540     2.6320     1.5500 hc         1 6L0       0.049700
     50 H9          -2.6860     2.9300     1.0780 hc         1 6L0       0.049700
     51 H10         -5.1930     3.7230    -0.5050 hc         1 6L0       0.048200
     52 H11         -4.1810     4.7900     0.4610 hc         1 6L0       0.048200
     53 H12         -2.2350     4.3130    -1.1070 hc         1 6L0       0.049700
     54 H13         -3.3020     3.3230    -2.0900 hc         1 6L0       0.049700
     55 H14         -3.1360     5.5070    -3.1510 h1         1 6L0       0.057700
     56 H15         -4.7640     5.2790    -2.5450 h1         1 6L0       0.057700
     57 H16         -4.8920     6.9840     0.0060 ho         1 6L0       0.477000
     58 H17         -1.2100     6.1470    -2.5190 hc         1 6L0       0.064700
     59 H18         -0.8690     7.8570    -2.8320 hc         1 6L0       0.064700
     60 H19          0.9170     7.0960    -1.5030 hc         1 6L0       0.072200
     61 H20         -0.1040     8.0540    -0.3880 hc         1 6L0       0.072200
     62 H21          1.3690     5.0500    -1.0870 hn         1 6L0       0.306500
     63 H22          0.9890     3.9220     1.5280 h1         1 6L0       0.060200
     64 H23         -0.0800     3.1000     0.3630 h1         1 6L0       0.060200
     65 H24          1.8880     2.5760    -1.0800 hc         1 6L0       0.055200
     66 H25          2.9510     3.4440     0.0170 hc         1 6L0       0.055200
     67 H26          1.4070     0.8530     0.7220 ha         1 6L0       0.192000
     68 H27          4.1880     1.9480     1.5160 ha         1 6L0       0.159000
     69 H28          4.2450     0.1400     3.0790 h1         1 6L0       0.074200
     70 H29          2.6320    -0.4210     2.6270 h1         1 6L0       0.074200
     71 H30          5.8470    -0.3990     0.5760 ho         1 6L0       0.422000
     72 H31          4.6410    -2.3920    -1.1150 hc         1 6L0       0.071200
     73 H32          5.0680    -3.3600     0.2100 hc         1 6L0       0.071200
     74 H33          2.3500    -3.8020    -1.2660 hc         1 6L0       0.067200
     75 H34          3.7950    -4.4980    -1.8490 hc         1 6L0       0.067200
     76 H35          3.0180    -7.3710     0.1050 hn         1 6L0       0.313500
     77 H36          2.3070    -5.9870    -2.4660 h1         1 6L0       0.041200
     78 H37          3.2230    -7.4970    -2.4400 h1         1 6L0       0.041200
     79 H38          0.8360    -7.9410    -2.8600 hc         1 6L0       0.044700
     80 H39          1.3510    -8.6740    -1.3510 hc         1 6L0       0.044700
     81 H40         -0.8650    -7.7080    -1.0520 hc         1 6L0       0.045700
     82 H41          0.2790    -6.8390    -0.0530 hc         1 6L0       0.045700
     83 H42          0.3500    -5.0090    -1.9040 hc         1 6L0       0.051700
     84 H43         -0.8590    -5.9400    -2.7640 hc         1 6L0       0.051700
     85 H44         -2.0760    -4.2350    -1.7220 h1         1 6L0       0.058200
     86 H45         -2.4060    -5.6530    -0.7250 h1         1 6L0       0.058200
     87 H46         -0.0330    -5.1290     1.3920 ho         1 6L0       0.427000
     88 OAA         -0.9510     5.8730     0.8800 o          1 6L0      -0.599100
@<TRIPOS>BOND
     1     1     2 1   
     2     1    39 1   
     3     1    42 1   
     4     1    43 1   
     5     2     3 1   
     6     2    44 1   
     7     2    45 1   
     8     3     4 2   
     9     3     5 1   
    10     5     6 1   
    11     5    46 1   
    12     6     7 1   
    13     6    47 1   
    14     6    48 1   
    15     7     8 1   
    16     7    49 1   
    17     7    50 1   
    18     8     9 1   
    19     8    51 1   
    20     8    52 1   
    21     9    10 1   
    22     9    53 1   
    23     9    54 1   
    24    10    11 1   
    25    10    55 1   
    26    10    56 1   
    27    11    12 1   
    28    11    13 1   
    29    12    57 1   
    30    13    14 2   
    31    13    15 1   
    32    15    16 1   
    33    15    58 1   
    34    15    59 1   
    35    16    17 1   
    36    16    60 1   
    37    16    61 1   
    38    17    18 1   
    39    17    88 2   
    40    18    19 1   
    41    18    62 1   
    42    19    20 1   
    43    19    63 1   
    44    19    64 1   
    45    20    21 1   
    46    20    65 1   
    47    20    66 1   
    48    21    22 2   
    49    21    67 1   
    50    22    23 1   
    51    22    68 1   
    52    23    24 1   
    53    23    69 1   
    54    23    70 1   
    55    24    25 1   
    56    24    26 1   
    57    25    71 1   
    58    26    27 2   
    59    26    28 1   
    60    28    29 1   
    61    28    72 1   
    62    28    73 1   
    63    29    30 1   
    64    29    74 1   
    65    29    75 1   
    66    30    31 2   
    67    30    32 1   
    68    32    33 1   
    69    32    76 1   
    70    33    34 1   
    71    33    77 1   
    72    33    78 1   
    73    34    35 1   
    74    34    79 1   
    75    34    80 1   
    76    35    36 1   
    77    35    81 1   
    78    35    82 1   
    79    36    37 1   
    80    36    83 1   
    81    36    84 1   
    82    37    38 1   
    83    37    85 1   
    84    37    86 1   
    85    38    39 1   
    86    38    41 1   
    87    39    40 2   
    88    41    87 1   
@<TRIPOS>SUBSTRUCTURE
     1 6L0         1 TEMP              0 ****  ****    0 ROOT
