@<TRIPOS>MOLECULE
6L0
   88    88     1     0     0
SMALL
abcg2


@<TRIPOS>ATOM
      1 CBA         -1.3150    -2.3170     1.6710 c3         1 6L0      -0.138400
      2 CAX         -2.2690    -1.1620     1.9230 c3         1 6L0      -0.149400
      3 CBJ         -2.3490    -0.1640     0.7880 c          1 6L0       0.620100
      4 OAC         -1.3600     0.1850     0.1590 o          1 6L0      -0.613100
      5 NBG         -3.5730     0.3520     0.5790 ns         1 6L0      -0.499900
      6 CAU         -3.8390     1.4670    -0.3010 c3         1 6L0       0.101000
      7 CAO         -3.7110     2.8090     0.4120 c3         1 6L0      -0.103400
      8 CAL         -4.1240     4.0070    -0.4350 c3         1 6L0      -0.061400
      9 CAR         -3.2410     4.2260    -1.6560 c3         1 6L0      -0.100400
     10 CBC         -3.5340     5.5140    -2.4180 c3         1 6L0       0.129000
     11 NBO         -3.4840     6.7170    -1.6110 n          1 6L0      -0.268300
     12 OAH         -4.7150     7.0760    -1.1000 oh         1 6L0      -0.457100
     13 CBL         -2.4320     7.3770    -1.1150 c          1 6L0       0.601100
     14 OAE         -2.6100     8.2740    -0.2880 o          1 6L0      -0.628100
     15 CAZ         -1.0660     7.0760    -1.6780 c3         1 6L0      -0.130400
     16 CAW          0.0260     7.0770    -0.6150 c3         1 6L0      -0.150900
     17 CBH         -0.0700     5.8580     0.2780 c          1 6L0       0.597100
     18 NBE          1.1040     5.2790     0.5810 ns         1 6L0      -0.504900
     19 CAS          1.2410     4.0280     1.2910 c3         1 6L0       0.102000
     20 CAM          1.3140     2.8360     0.3290 c3         1 6L0      -0.076200
     21 CAJ          1.6100     1.5480     1.0330 c2         1 6L0      -0.164200
     22 CAP          2.8310     1.0310     1.1200 c2         1 6L0      -0.281200
     23 CBB          3.1650    -0.2500     1.8240 c3         1 6L0       0.142200
     24 NBN          3.8740    -1.1750     0.9590 n          1 6L0      -0.281300
     25 OAG          5.1870    -0.8570     0.7280 oh         1 6L0      -0.421100
     26 CBK          3.2770    -2.1390     0.2140 c          1 6L0       0.622100
     27 OAD          2.0940    -2.3970     0.3540 o          1 6L0      -0.583100
     28 CAY          4.1440    -2.8360    -0.8130 c3         1 6L0      -0.137400
     29 CAV          3.5420    -4.1510    -1.2630 c3         1 6L0      -0.150900
     30 CBI          3.5720    -5.1910    -0.1630 c          1 6L0       0.611100
     31 OAB          4.0410    -4.9380     0.9410 o          1 6L0      -0.605100
     32 NBF          3.0870    -6.4090    -0.4570 ns         1 6L0      -0.511900
     33 CAT          2.5380    -6.8760    -1.7130 c3         1 6L0       0.111000
     34 CAN          1.3470    -7.7990    -1.4860 c3         1 6L0      -0.092400
     35 CAK          0.2190    -7.1810    -0.6650 c3         1 6L0      -0.072400
     36 CAQ         -0.4070    -5.9490    -1.3100 c3         1 6L0      -0.088400
     37 CBD         -1.6310    -5.4000    -0.5740 c3         1 6L0       0.106000
     38 NBP         -1.3170    -4.4480     0.4700 n          1 6L0      -0.294300
     39 CBM         -1.7980    -3.1890     0.5350 c          1 6L0       0.621100
     40 OAF         -2.5910    -2.7670    -0.2990 o          1 6L0      -0.604100
     41 OAI         -0.4130    -4.8590     1.4090 oh         1 6L0      -0.411100
     42 H1          -0.3190    -1.9470     1.4140 hc         1 6L0       0.087200
     43 H2          -1.1990    -2.8890     2.5910 hc         1 6L0       0.087200
     44 H3          -3.2590    -1.5370     2.1870 hc         1 6L0       0.055200
     45 H4          -1.9090    -0.6120     2.7980 hc         1 6L0       0.055200
     46 H5          -4.3270     0.0410     1.1690 hn         1 6L0       0.306500
     47 H6          -3.1580     1.4090    -1.1490 h1         1 6L0       0.053700
     48 H7          -4.8510     1.3500    -0.6970 h1         1 6L0       0.053700
     49 H8          -4.3340     2.7830     1.3100 hc         1 6L0       0.049700
     50 H9          -2.6790     2.9440     0.7470 hc         1 6L0       0.049700
     51 H10         -5.1700     3.9020    -0.7450 hc         1 6L0       0.048200
     52 H11         -4.0790     4.8910     0.2030 hc         1 6L0       0.048200
     53 H12         -2.1950     4.2240    -1.3410 hc         1 6L0       0.049700
     54 H13         -3.3530     3.4050    -2.3700 hc         1 6L0       0.049700
     55 H14         -2.8390     5.6250    -3.2500 h1         1 6L0       0.057700
     56 H15         -4.5290     5.4830    -2.8640 h1         1 6L0       0.057700
     57 H16         -4.4850     7.7180    -0.4030 ho         1 6L0       0.477000
     58 H17         -1.0350     6.1480    -2.2470 hc         1 6L0       0.064700
     59 H18         -0.8520     7.8750    -2.3940 hc         1 6L0       0.064700
     60 H19          0.9980     7.1290    -1.1060 hc         1 6L0       0.072200
     61 H20         -0.0590     7.9720     0.0050 hc         1 6L0       0.072200
     62 H21          1.9350     5.6440     0.1450 hn         1 6L0       0.306500
     63 H22          2.1540     4.0730     1.8850 h1         1 6L0       0.060200
     64 H23          0.4080     3.9160     1.9840 h1         1 6L0       0.060200
     65 H24          0.3650     2.7550    -0.2070 hc         1 6L0       0.055200
     66 H25          2.0940     3.0350    -0.4100 hc         1 6L0       0.055200
     67 H26          0.7730     1.0310     1.4920 ha         1 6L0       0.192000
     68 H27          3.6610     1.5590     0.6540 ha         1 6L0       0.159000
     69 H28          3.8020    -0.0640     2.6930 h1         1 6L0       0.074200
     70 H29          2.2630    -0.7410     2.1840 h1         1 6L0       0.074200
     71 H30          5.2100    -0.2400    -0.0170 ho         1 6L0       0.422000
     72 H31          4.2270    -2.1680    -1.6770 hc         1 6L0       0.071200
     73 H32          5.1570    -2.9830    -0.4470 hc         1 6L0       0.071200
     74 H33          2.5180    -4.0040    -1.6130 hc         1 6L0       0.067200
     75 H34          4.1050    -4.5230    -2.1240 hc         1 6L0       0.067200
     76 H35          3.1660    -7.0950     0.2810 hn         1 6L0       0.313500
     77 H36          2.2310    -6.0200    -2.3120 h1         1 6L0       0.041200
     78 H37          3.3010    -7.4040    -2.2940 h1         1 6L0       0.041200
     79 H38          0.9740    -8.1050    -2.4680 hc         1 6L0       0.044700
     80 H39          1.6890    -8.7130    -0.9930 hc         1 6L0       0.044700
     81 H40         -0.5590    -7.9380    -0.5330 hc         1 6L0       0.045700
     82 H41          0.5850    -6.9380     0.3330 hc         1 6L0       0.045700
     83 H42          0.3230    -5.1430    -1.4230 hc         1 6L0       0.051700
     84 H43         -0.7280    -6.2140    -2.3220 hc         1 6L0       0.051700
     85 H44         -2.2820    -4.8800    -1.2720 h1         1 6L0       0.058200
     86 H45         -2.2160    -6.2240    -0.1490 h1         1 6L0       0.058200
     87 H46         -0.9130    -5.3770     2.0560 ho         1 6L0       0.427000
     88 OAA         -1.1480     5.4520     0.6890 o          1 6L0      -0.599100
@<TRIPOS>BOND
     1     1     2 1   
     2     1    39 1   
     3     1    42 1   
     4     1    43 1   
     5     2     3 1   
     6     2    44 1   
     7     2    45 1   
     8     3     4 2   
     9     3     5 1   
    10     5     6 1   
    11     5    46 1   
    12     6     7 1   
    13     6    47 1   
    14     6    48 1   
    15     7     8 1   
    16     7    49 1   
    17     7    50 1   
    18     8     9 1   
    19     8    51 1   
    20     8    52 1   
    21     9    10 1   
    22     9    53 1   
    23     9    54 1   
    24    10    11 1   
    25    10    55 1   
    26    10    56 1   
    27    11    12 1   
    28    11    13 1   
    29    12    57 1   
    30    13    14 2   
    31    13    15 1   
    32    15    16 1   
    33    15    58 1   
    34    15    59 1   
    35    16    17 1   
    36    16    60 1   
    37    16    61 1   
    38    17    18 1   
    39    17    88 2   
    40    18    19 1   
    41    18    62 1   
    42    19    20 1   
    43    19    63 1   
    44    19    64 1   
    45    20    21 1   
    46    20    65 1   
    47    20    66 1   
    48    21    22 2   
    49    21    67 1   
    50    22    23 1   
    51    22    68 1   
    52    23    24 1   
    53    23    69 1   
    54    23    70 1   
    55    24    25 1   
    56    24    26 1   
    57    25    71 1   
    58    26    27 2   
    59    26    28 1   
    60    28    29 1   
    61    28    72 1   
    62    28    73 1   
    63    29    30 1   
    64    29    74 1   
    65    29    75 1   
    66    30    31 2   
    67    30    32 1   
    68    32    33 1   
    69    32    76 1   
    70    33    34 1   
    71    33    77 1   
    72    33    78 1   
    73    34    35 1   
    74    34    79 1   
    75    34    80 1   
    76    35    36 1   
    77    35    81 1   
    78    35    82 1   
    79    36    37 1   
    80    36    83 1   
    81    36    84 1   
    82    37    38 1   
    83    37    85 1   
    84    37    86 1   
    85    38    39 1   
    86    38    41 1   
    87    39    40 2   
    88    41    87 1   
@<TRIPOS>SUBSTRUCTURE
     1 6L0         1 TEMP              0 ****  ****    0 ROOT
