@<TRIPOS>MOLECULE
6L2
   60    62     1     0     0
SMALL
No Charge or Current Charge


@<TRIPOS>ATOM
      1 C8          -8.3660    -0.3400    -1.0480 c3         1 6L2       0.147900
      2 O2          -7.2060     0.2380    -0.4220 os         1 6L2      -0.452000
      3 C5          -6.7890     1.5510    -0.8650 c6         1 6L2       0.180300
      4 C6          -5.6460     2.0620     0.0500 c6         1 6L2      -0.053400
      5 C4          -6.3210     1.5550    -2.3490 c6         1 6L2      -0.105400
      6 C3          -5.0340     0.7140    -2.5460 c6         1 6L2      -0.060400
      7 C2          -3.8920     1.2110    -1.6250 c6         1 6L2      -0.052400
      8 C1          -4.3400     1.2240    -0.1320 c6         1 6L2      -0.280700
      9 S1          -3.0140     1.7650     1.0060 s6         1 6L2       1.190800
     10 O1          -2.5830     3.1090     0.6090 o          1 6L2      -0.525500
     11 O4          -3.4570     1.5220     2.3830 o          1 6L2      -0.525500
     12 N5          -1.7330     0.7450     0.6870 ns         1 6L2      -0.590300
     13 C7          -1.6290    -0.5780     0.9780 c          1 6L2       0.662700
     14 O8          -2.5370    -1.1890     1.5170 o          1 6L2      -0.535100
     15 C9          -0.3010    -1.2070     0.6320 ca         1 6L2      -0.241600
     16 C14          0.8770    -0.4250     0.6420 ca         1 6L2       0.003000
     17 C10         -0.2070    -2.5780     0.3040 ca         1 6L2       0.241100
     18 O3          -1.3600    -3.3380     0.2540 os         1 6L2      -0.316100
     19 C20         -1.3640    -4.7370    -0.0810 c3         1 6L2       0.147900
     20 C11          1.0480    -3.1410    -0.0070 ca         1 6L2      -0.310000
     21 C12          2.2160    -2.3520     0.0070 ca         1 6L2       0.217100
     22 O5           3.4570    -2.8940    -0.2760 os         1 6L2      -0.341100
     23 C15          3.6480    -4.2800    -0.6100 c3         1 6L2       0.150900
     24 C13          2.1320    -0.9820     0.3340 ca         1 6L2      -0.085000
     25 C16          3.3240    -0.1250     0.3550 cc         1 6L2      -0.142000
     26 S20          4.6120    -0.0850    -0.8500 ss         1 6L2       0.286000
     27 C17          3.5400     0.7710     1.3740 cd         1 6L2      -0.145000
     28 C18          4.7460     1.5090     1.2080 cd         1 6L2      -0.101000
     29 C19          5.4370     1.1740     0.0680 cc         1 6L2      -0.120000
     30 C21          6.6690     1.7370    -0.3600 cg         1 6L2      -0.072000
     31 C22          7.7080     2.2410    -0.7360 c1         1 6L2      -0.124100
     32 C23          8.9440     2.8930    -1.1820 c3         1 6L2       0.253700
     33 O24          9.9600     1.9150    -1.4330 oh         1 6L2      -0.647000
     34 H1          -8.1740    -0.5730    -2.1030 h1         1 6L2       0.027367
     35 H2          -8.6400    -1.2760    -0.5440 h1         1 6L2       0.027367
     36 H3          -9.2230     0.3430    -0.9890 h1         1 6L2       0.027367
     37 H4          -7.6470     2.2320    -0.7610 h1         1 6L2       0.035700
     38 H5          -5.4490     3.1200    -0.1760 hc         1 6L2       0.067200
     39 H6          -5.9810     2.0290     1.0960 hc         1 6L2       0.067200
     40 H7          -7.1160     1.1940    -3.0130 hc         1 6L2       0.046200
     41 H8          -6.1250     2.5910    -2.6590 hc         1 6L2       0.046200
     42 H9          -5.2440    -0.3450    -2.3380 hc         1 6L2       0.046200
     43 H10         -4.7130     0.7650    -3.5960 hc         1 6L2       0.046200
     44 H11         -3.0150     0.5620    -1.7590 hc         1 6L2       0.049700
     45 H12         -3.5850     2.2200    -1.9370 hc         1 6L2       0.049700
     46 H13         -4.5380     0.1930     0.1890 h1         1 6L2       0.131700
     47 H14         -0.9890     1.2130     0.2010 hn         1 6L2       0.347500
     48 H15          0.8330     0.6290     0.9060 ha         1 6L2       0.127000
     49 H16         -0.9670    -4.8990    -1.0920 h1         1 6L2       0.047033
     50 H17         -0.7610    -5.3120     0.6330 h1         1 6L2       0.047033
     51 H18         -2.3880    -5.1300    -0.0530 h1         1 6L2       0.047033
     52 H19          1.1170    -4.1910    -0.2610 ha         1 6L2       0.127000
     53 H20          3.3160    -4.9290     0.2110 h1         1 6L2       0.048033
     54 H21          3.0900    -4.5430    -1.5170 h1         1 6L2       0.048033
     55 H22          4.7100    -4.4830    -0.7930 h1         1 6L2       0.048033
     56 H23          2.8750     0.9010     2.2230 ha         1 6L2       0.133000
     57 H24          5.0860     2.2610     1.9140 ha         1 6L2       0.140000
     58 H25          8.7300     3.4680    -2.0930 h1         1 6L2       0.035200
     59 H26          9.2710     3.5980    -0.4060 h1         1 6L2       0.035200
     60 H27         10.7560     2.4110    -1.7260 ho         1 6L2       0.445000
@<TRIPOS>BOND
     1     1     2 1   
     2     1    34 1   
     3     1    35 1   
     4     1    36 1   
     5     2     3 1   
     6     3     4 1   
     7     3     5 1   
     8     3    37 1   
     9     4     8 1   
    10     4    38 1   
    11     4    39 1   
    12     5     6 1   
    13     5    40 1   
    14     5    41 1   
    15     6     7 1   
    16     6    42 1   
    17     6    43 1   
    18     7     8 1   
    19     7    44 1   
    20     7    45 1   
    21     8     9 1   
    22     8    46 1   
    23     9    10 2   
    24     9    11 2   
    25     9    12 1   
    26    12    13 1   
    27    12    47 1   
    28    13    14 2   
    29    13    15 1   
    30    15    16 ar  
    31    15    17 ar  
    32    16    24 ar  
    33    16    48 1   
    34    17    18 1   
    35    17    20 ar  
    36    18    19 1   
    37    19    49 1   
    38    19    50 1   
    39    19    51 1   
    40    20    21 ar  
    41    20    52 1   
    42    21    22 1   
    43    21    24 ar  
    44    22    23 1   
    45    23    53 1   
    46    23    54 1   
    47    23    55 1   
    48    24    25 1   
    49    25    26 1   
    50    25    27 2   
    51    26    29 1   
    52    27    28 1   
    53    27    56 1   
    54    28    29 2   
    55    28    57 1   
    56    29    30 1   
    57    30    31 3   
    58    31    32 1   
    59    32    33 1   
    60    32    58 1   
    61    32    59 1   
    62    33    60 1   
@<TRIPOS>SUBSTRUCTURE
     1 6L2         1 TEMP              0 ****  ****    0 ROOT
