@<TRIPOS>MOLECULE
6L2
   60    62     1     0     0
SMALL
abcg2


@<TRIPOS>ATOM
      1 C8          -8.4390    -0.4020    -0.1610 c3         1 6L2       0.147900
      2 O2          -7.1900     0.1740     0.1320 os         1 6L2      -0.452000
      3 C5          -6.9400     1.4000    -0.5220 c6         1 6L2       0.180300
      4 C6          -5.6700     1.9760     0.0970 c6         1 6L2      -0.053400
      5 C4          -6.7740     1.2490    -2.0320 c6         1 6L2      -0.105400
      6 C3          -5.5670     0.3880    -2.3790 c6         1 6L2      -0.060400
      7 C2          -4.2880     0.9480    -1.7600 c6         1 6L2      -0.052400
      8 C1          -4.4630     1.1020    -0.2530 c6         1 6L2      -0.280700
      9 S1          -3.0060     1.8420     0.4960 s6         1 6L2       1.190800
     10 O1          -2.6950     3.0910    -0.1810 o          1 6L2      -0.525500
     11 O4          -3.1490     1.8340     1.9400 o          1 6L2      -0.525500
     12 N5          -1.7320     0.8280     0.0750 ns         1 6L2      -0.590300
     13 C7          -1.5530    -0.4420     0.5840 c          1 6L2       0.662700
     14 O8          -2.4140    -0.9890     1.2350 o          1 6L2      -0.535100
     15 C9          -0.2340    -1.0340     0.2660 ca         1 6L2      -0.241600
     16 C14          0.9100    -0.2490     0.3140 ca         1 6L2       0.003000
     17 C10         -0.1060    -2.3980    -0.0520 ca         1 6L2       0.241100
     18 O3          -1.2240    -3.1170    -0.1250 os         1 6L2      -0.316100
     19 C20         -1.1480    -4.4910    -0.4660 c3         1 6L2       0.147900
     20 C11          1.1550    -2.9200    -0.3140 ca         1 6L2      -0.310000
     21 C12          2.2840    -2.1100    -0.2490 ca         1 6L2       0.217100
     22 O5           3.5120    -2.5620    -0.4950 os         1 6L2      -0.341100
     23 C15          3.7240    -3.9250    -0.8270 c3         1 6L2       0.150900
     24 C13          2.1880    -0.7440     0.0810 ca         1 6L2      -0.085000
     25 C16          3.3480     0.1370     0.1890 cc         1 6L2      -0.142000
     26 S20          4.9410    -0.3130    -0.3120 ss         1 6L2       0.286000
     27 C17          3.3500     1.4290     0.6630 cd         1 6L2      -0.145000
     28 C18          4.6110     2.0520     0.6140 cd         1 6L2      -0.101000
     29 C19          5.5850     1.2340     0.1020 cc         1 6L2      -0.120000
     30 C21          6.9520     1.5160    -0.0870 cg         1 6L2      -0.072000
     31 C22          8.1240     1.7500    -0.2520 c1         1 6L2      -0.124100
     32 C23          9.5340     2.0380    -0.4700 c3         1 6L2       0.253700
     33 O24         10.2580     1.7560     0.7060 oh         1 6L2      -0.647000
     34 H1          -8.4970    -0.8020    -1.1780 h1         1 6L2       0.027367
     35 H2          -8.5940    -1.2260     0.5340 h1         1 6L2       0.027367
     36 H3          -9.2590     0.3150    -0.0330 h1         1 6L2       0.027367
     37 H4          -7.7640     2.1000    -0.3210 h1         1 6L2       0.035700
     38 H5          -5.5270     2.9870    -0.2910 hc         1 6L2       0.067200
     39 H6          -5.7960     2.0550     1.1780 hc         1 6L2       0.067200
     40 H7          -7.6800     0.8440    -2.4870 hc         1 6L2       0.046200
     41 H8          -6.6460     2.2510    -2.4540 hc         1 6L2       0.046200
     42 H9          -5.7230    -0.6380    -2.0370 hc         1 6L2       0.046200
     43 H10         -5.4420     0.3380    -3.4620 hc         1 6L2       0.046200
     44 H11         -3.4510     0.2840    -1.9850 hc         1 6L2       0.049700
     45 H12         -4.0650     1.9200    -2.2050 hc         1 6L2       0.049700
     46 H13         -4.5590     0.1230     0.2240 h1         1 6L2       0.131700
     47 H14         -1.0940     1.2020    -0.6170 hn         1 6L2       0.347500
     48 H15          0.7990     0.7970     0.5680 ha         1 6L2       0.127000
     49 H16         -0.7300    -4.6380    -1.4640 h1         1 6L2       0.047033
     50 H17         -0.5560    -5.0540     0.2580 h1         1 6L2       0.047033
     51 H18         -2.1690    -4.8630    -0.4530 h1         1 6L2       0.047033
     52 H19          1.2650    -3.9620    -0.5780 ha         1 6L2       0.127000
     53 H20          3.4070    -4.5850    -0.0180 h1         1 6L2       0.048033
     54 H21          3.2020    -4.1990    -1.7460 h1         1 6L2       0.048033
     55 H22          4.7930    -4.0350    -0.9790 h1         1 6L2       0.048033
     56 H23          2.4720     1.9290     1.0460 ha         1 6L2       0.133000
     57 H24          4.8010     3.0620     0.9480 ha         1 6L2       0.140000
     58 H25          9.8820     1.4390    -1.3210 h1         1 6L2       0.035200
     59 H26          9.6310     3.0890    -0.7700 h1         1 6L2       0.035200
     60 H27         11.1830     1.9540     0.5300 ho         1 6L2       0.445000
@<TRIPOS>BOND
     1     1     2 1   
     2     1    34 1   
     3     1    35 1   
     4     1    36 1   
     5     2     3 1   
     6     3     4 1   
     7     3     5 1   
     8     3    37 1   
     9     4     8 1   
    10     4    38 1   
    11     4    39 1   
    12     5     6 1   
    13     5    40 1   
    14     5    41 1   
    15     6     7 1   
    16     6    42 1   
    17     6    43 1   
    18     7     8 1   
    19     7    44 1   
    20     7    45 1   
    21     8     9 1   
    22     8    46 1   
    23     9    10 2   
    24     9    11 2   
    25     9    12 1   
    26    12    13 1   
    27    12    47 1   
    28    13    14 2   
    29    13    15 1   
    30    15    16 ar  
    31    15    17 ar  
    32    16    24 ar  
    33    16    48 1   
    34    17    18 1   
    35    17    20 ar  
    36    18    19 1   
    37    19    49 1   
    38    19    50 1   
    39    19    51 1   
    40    20    21 ar  
    41    20    52 1   
    42    21    22 1   
    43    21    24 ar  
    44    22    23 1   
    45    23    53 1   
    46    23    54 1   
    47    23    55 1   
    48    24    25 1   
    49    25    26 1   
    50    25    27 2   
    51    26    29 1   
    52    27    28 1   
    53    27    56 1   
    54    28    29 2   
    55    28    57 1   
    56    29    30 1   
    57    30    31 3   
    58    31    32 1   
    59    32    33 1   
    60    32    58 1   
    61    32    59 1   
    62    33    60 1   
@<TRIPOS>SUBSTRUCTURE
     1 6L2         1 TEMP              0 ****  ****    0 ROOT
