@<TRIPOS>MOLECULE
6L3
   27    27     1     0     0
SMALL
No Charge or Current Charge


@<TRIPOS>ATOM
      1 C            0.3100    -2.4620    -0.0660 c3         1 6L3      -0.053800
      2 H1           0.8370    -2.6320     0.8810 hc         1 6L3       0.049033
      3 H2           1.0510    -2.4750    -0.8740 hc         1 6L3       0.049033
      4 H3          -0.3560    -3.3170    -0.2280 hc         1 6L3       0.049033
      5 C1          -0.4610    -1.1440    -0.0340 ca         1 6L3      -0.021800
      6 C2           0.1960     0.1050    -0.1690 ca         1 6L3      -0.132600
      7 C3          -0.5660     1.3000    -0.1640 ca         1 6L3      -0.021800
      8 C4          -1.9650     1.2350    -0.0190 ca         1 6L3      -0.127000
      9 C5          -2.6160    -0.0000     0.1240 ca         1 6L3      -0.046300
     10 C6          -1.8600    -1.1830     0.1140 ca         1 6L3      -0.127000
     11 C7           0.0990     2.6680    -0.2950 c3         1 6L3      -0.053800
     12 C8          -4.1280    -0.0570     0.2790 c3         1 6L3      -0.049800
     13 C9           1.6930     0.1670    -0.3250 c          1 6L3       0.606700
     14 O2           2.2420     0.6250    -1.3200 o          1 6L3      -0.484000
     15 O1           2.3680    -0.3540     0.7500 os         1 6L3      -0.435100
     16 C11          3.8060    -0.3600     0.7100 c3         1 6L3       0.148900
     17 H4          -2.5510     2.1510    -0.0150 ha         1 6L3       0.113500
     18 H5          -2.3660    -2.1400     0.2170 ha         1 6L3       0.113500
     19 H6           0.4830     2.8220    -1.3100 hc         1 6L3       0.049033
     20 H7          -0.6020     3.4830    -0.0820 hc         1 6L3       0.049033
     21 H8           0.9370     2.7720     0.4040 hc         1 6L3       0.049033
     22 H9          -4.6170    -0.1310    -0.7000 hc         1 6L3       0.045033
     23 H10         -4.4370    -0.9240     0.8750 hc         1 6L3       0.045033
     24 H11         -4.5130     0.8400     0.7790 hc         1 6L3       0.045033
     25 H12          4.1720    -0.9490    -0.1410 h1         1 6L3       0.047700
     26 H13          4.1990     0.6620     0.6210 h1         1 6L3       0.047700
     27 H14          4.2120    -0.8020     1.6290 h1         1 6L3       0.047700
@<TRIPOS>BOND
     1     1     2 1   
     2     1     3 1   
     3     1     4 1   
     4     1     5 1   
     5     5     6 ar  
     6     5    10 ar  
     7     6     7 ar  
     8     6    13 1   
     9     7     8 ar  
    10     7    11 1   
    11     8     9 ar  
    12     8    17 1   
    13     9    10 ar  
    14     9    12 1   
    15    10    18 1   
    16    11    19 1   
    17    11    20 1   
    18    11    21 1   
    19    12    22 1   
    20    12    23 1   
    21    12    24 1   
    22    13    14 2   
    23    13    15 1   
    24    15    16 1   
    25    16    25 1   
    26    16    26 1   
    27    16    27 1   
@<TRIPOS>SUBSTRUCTURE
     1 6L3         1 TEMP              0 ****  ****    0 ROOT
