@<TRIPOS>MOLECULE
6L3
   27    27     1     0     0
SMALL
bcc


@<TRIPOS>ATOM
      1 C            0.3200    -2.4280    -0.0270 c3         1 6L3      -0.053800
      2 H1           0.8360    -2.6000     0.9180 hc         1 6L3       0.049033
      3 H2           1.0700    -2.4670    -0.8190 hc         1 6L3       0.049033
      4 H3          -0.3610    -3.2630    -0.1840 hc         1 6L3       0.049033
      5 C1          -0.4390    -1.1300    -0.0160 ca         1 6L3      -0.021800
      6 C2           0.1930     0.1150    -0.1390 ca         1 6L3      -0.132600
      7 C3          -0.5490     1.3010    -0.1380 ca         1 6L3      -0.021800
      8 C4          -1.9300     1.2210     0.0070 ca         1 6L3      -0.145000
      9 C5          -2.5860     0.0010     0.1240 ca         1 6L3      -0.046300
     10 C6          -1.8230    -1.1610     0.1050 ca         1 6L3      -0.145000
     11 C7           0.0960     2.6530    -0.2670 c3         1 6L3      -0.053800
     12 C8          -4.0800    -0.0670     0.2460 c3         1 6L3      -0.049800
     13 C9           1.6710     0.1920    -0.3100 c          1 6L3       0.655700
     14 O2           2.2200     0.7070    -1.2530 o          1 6L3      -0.533000
     15 O1           2.3200    -0.3610     0.7030 os         1 6L3      -0.411900
     16 C11          3.7470    -0.3870     0.6380 c3         1 6L3       0.125700
     17 H4          -2.5090     2.1370     0.0320 ha         1 6L3       0.131500
     18 H5          -2.3180    -2.1220     0.1910 ha         1 6L3       0.131500
     19 H6           0.4700     2.8250    -1.2760 hc         1 6L3       0.049033
     20 H7          -0.6240     3.4390    -0.0450 hc         1 6L3       0.049033
     21 H8           0.9370     2.7770     0.4160 hc         1 6L3       0.049033
     22 H9          -4.5350    -0.3480    -0.7060 hc         1 6L3       0.045033
     23 H10         -4.3860    -0.8130     0.9790 hc         1 6L3       0.045033
     24 H11         -4.5030     0.8920     0.5400 hc         1 6L3       0.045033
     25 H12          4.0960    -0.9490    -0.2290 h1         1 6L3       0.047700
     26 H13          4.1600     0.6200     0.6040 h1         1 6L3       0.047700
     27 H14          4.0770    -0.8830     1.5460 h1         1 6L3       0.047700
@<TRIPOS>BOND
     1     1     2 1   
     2     1     3 1   
     3     1     4 1   
     4     1     5 1   
     5     5     6 ar  
     6     5    10 ar  
     7     6     7 ar  
     8     6    13 1   
     9     7     8 ar  
    10     7    11 1   
    11     8     9 ar  
    12     8    17 1   
    13     9    10 ar  
    14     9    12 1   
    15    10    18 1   
    16    11    19 1   
    17    11    20 1   
    18    11    21 1   
    19    12    22 1   
    20    12    23 1   
    21    12    24 1   
    22    13    14 2   
    23    13    15 1   
    24    15    16 1   
    25    16    25 1   
    26    16    26 1   
    27    16    27 1   
@<TRIPOS>SUBSTRUCTURE
     1 6L3         1 TEMP              0 ****  ****    0 ROOT
