@<TRIPOS>MOLECULE
6L4
   41    43     1     0     0
SMALL
No Charge or Current Charge


@<TRIPOS>ATOM
      1 C10          6.8380    -2.1730    -0.5300 c3         1 6L4       0.075900
      2 C17         -2.6290     0.4990    -2.8450 ca         1 6L4      -0.095000
      3 C20         -3.3380    -1.9270    -1.6140 ca         1 6L4      -0.087000
      4 C21         -2.8660    -0.8580    -0.8190 ca         1 6L4      -0.040000
      5 C24         -2.6550    -1.6070     2.9140 ce         1 6L4      -0.310200
      6 C02         -0.4700     2.4290     0.7840 ca         1 6L4      -0.092000
      7 C03          0.8360     2.4380     1.2990 ca         1 6L4       0.178900
      8 N04          1.7630     1.5560     0.8810 nb         1 6L4      -0.250000
      9 C05          1.3710     0.6710    -0.0510 ca         1 6L4       0.424900
     10 C07          3.6170    -0.5470    -0.2420 cc         1 6L4       0.180000
     11 C08          4.3980    -1.4690    -0.8580 cd         1 6L4      -0.224000
     12 N09          5.6430    -1.3760    -0.2230 na         1 6L4       0.141800
     13 N11          5.6690    -0.4170     0.7820 nd         1 6L4      -0.519800
     14 C12          4.4370     0.0590     0.7420 cc         1 6L4       0.246900
     15 N13          0.1570     0.5760    -0.6080 nb         1 6L4      -0.313000
     16 C14         -0.7760     1.4580    -0.1900 ca         1 6L4       0.399300
     17 O15         -2.0530     1.4210    -0.7130 os         1 6L4      -0.350400
     18 C16         -2.5120     0.3550    -1.4530 ca         1 6L4       0.084100
     19 C18         -3.0930    -0.5720    -3.6260 ca         1 6L4      -0.106000
     20 C19         -3.4460    -1.7830    -3.0090 ca         1 6L4      -0.100000
     21 C23         -2.8100    -2.0060     1.4810 c          1 6L4       0.614300
     22 C25         -2.5460    -2.4810     3.9460 c2         1 6L4      -0.222000
     23 O26         -2.9390    -3.1770     1.1450 o          1 6L4      -0.590100
     24 H1           7.1320    -2.7490     0.3560 h1         1 6L4       0.056700
     25 H2           6.6230    -2.8620    -1.3550 h1         1 6L4       0.056700
     26 H3           7.6590    -1.5050    -0.8200 h1         1 6L4       0.056700
     27 H4          -2.3560     1.4400    -3.3180 ha         1 6L4       0.131000
     28 H5          -3.6380    -2.8710    -1.1710 ha         1 6L4       0.131000
     29 H6          -2.6020    -0.5340     3.1020 ha         1 6L4       0.181000
     30 H8           1.1450     3.1580     2.0560 h4         1 6L4       0.036100
     31 H9           1.8860    -0.8550    -1.2470 hn         1 6L4       0.529000
     32 H10          4.1900    -2.1600    -1.6650 h4         1 6L4       0.160000
     33 H11          4.1720     0.8400     1.4400 h4         1 6L4       0.063100
     34 H12         -3.1810    -0.4620    -4.7050 ha         1 6L4       0.120000
     35 H13         -3.8110    -2.6110    -3.6130 ha         1 6L4       0.120000
     36 H14         -2.6080    -0.0410     1.0440 hn         1 6L4       0.160000
     37 H15         -2.4190    -2.1400     4.9760 ha         1 6L4       0.177000
     38 H16         -2.5790    -3.5620     3.7960 ha         1 6L4       0.177000
     39 N06          2.2860    -0.2590    -0.5200 nu         1 6L4      -0.882900
     40 N22         -2.7540    -0.9380     0.5990 ns         1 6L4      -0.159000
     41 Cl01        -1.6690     3.5910     1.3590 cl         1 6L4      -0.158000
@<TRIPOS>BOND
     1     1    12 1   
     2     1    24 1   
     3     1    25 1   
     4     1    26 1   
     5     2    18 ar  
     6     2    19 ar  
     7     2    27 1   
     8     3     4 ar  
     9     3    20 ar  
    10     3    28 1   
    11     4    18 ar  
    12     4    40 1   
    13     5    21 1   
    14     5    22 2   
    15     5    29 1   
    16     6     7 ar  
    17     6    16 ar  
    18     6    41 1   
    19     7     8 ar  
    20     7    30 1   
    21     8     9 ar  
    22     9    15 ar  
    23     9    39 1   
    24    10    11 2   
    25    10    14 1   
    26    10    39 1   
    27    11    12 1   
    28    11    32 1   
    29    12    13 1   
    30    13    14 2   
    31    14    33 1   
    32    15    16 ar  
    33    16    17 1   
    34    17    18 1   
    35    19    20 ar  
    36    19    34 1   
    37    20    35 1   
    38    21    23 2   
    39    21    40 1   
    40    22    37 1   
    41    22    38 1   
    42    31    39 1   
    43    36    40 1   
@<TRIPOS>SUBSTRUCTURE
     1 6L4         1 TEMP              0 ****  ****    0 ROOT
