@<TRIPOS>MOLECULE
6L4
   41    43     1     0     0
SMALL
bcc


@<TRIPOS>ATOM
      1 C10          5.9160    -2.8190     0.5890 c3         1 6L4       0.046600
      2 C17         -3.1350     0.7040    -2.7960 ca         1 6L4      -0.113000
      3 C20         -3.4060    -1.8090    -1.6430 ca         1 6L4      -0.105000
      4 C21         -2.8980    -0.7630    -0.8850 ca         1 6L4       0.052600
      5 C24         -1.0200    -1.5390     2.2130 ce         1 6L4      -0.260200
      6 C02         -0.6550     2.6600     0.5010 ca         1 6L4      -0.314200
      7 C03          0.6410     2.6180     0.9680 ca         1 6L4       0.507200
      8 N04          1.4720     1.6180     0.7070 nb         1 6L4      -0.776000
      9 C05          0.9930     0.6400    -0.0550 ca         1 6L4       0.950900
     10 C07          3.0290    -0.7230     0.1490 cc         1 6L4      -0.023700
     11 C08          3.6980    -1.9050    -0.1000 cd         1 6L4      -0.191300
     12 N09          4.8910    -1.8060     0.5180 na         1 6L4       0.120400
     13 N11          5.0390    -0.6560     1.1500 nd         1 6L4      -0.519800
     14 C12          3.9220     0.0250     0.9400 cc         1 6L4       0.312200
     15 N13         -0.2330     0.6110    -0.5960 nb         1 6L4      -0.839000
     16 C14         -1.0480     1.5820    -0.3000 ca         1 6L4       0.727600
     17 O15         -2.3020     1.5710    -0.7580 os         1 6L4      -0.350400
     18 C16         -2.7550     0.4880    -1.4840 ca         1 6L4       0.084100
     19 C18         -3.6450    -0.3510    -3.5410 ca         1 6L4      -0.124000
     20 C19         -3.7730    -1.6070    -2.9660 ca         1 6L4      -0.118000
     21 C23         -1.4580    -1.7310     0.8090 c          1 6L4       0.681300
     22 C25          0.1120    -2.0720     2.6590 c2         1 6L4      -0.122000
     23 O26         -0.9160    -2.5000     0.0370 o          1 6L4      -0.590100
     24 H1           5.9150    -3.3060     1.5630 h1         1 6L4       0.056700
     25 H2           5.7310    -3.5660    -0.1780 h1         1 6L4       0.056700
     26 H3           6.8900    -2.3690     0.4140 h1         1 6L4       0.056700
     27 H4          -3.0240     1.6890    -3.2300 ha         1 6L4       0.149000
     28 H5          -3.5290    -2.7820    -1.1870 ha         1 6L4       0.149000
     29 H6          -1.6300    -0.9200     2.8620 ha         1 6L4       0.131000
     30 H8           1.0200     3.4240     1.5860 h4         1 6L4       0.036100
     31 H9           1.2930    -1.1610    -0.8500 hn         1 6L4       0.473800
     32 H10          3.4100    -2.7770    -0.6640 h4         1 6L4       0.178000
     33 H11          3.7940     1.0120     1.3490 h4         1 6L4       0.063100
     34 H12         -3.9380    -0.1860    -4.5680 ha         1 6L4       0.138000
     35 H13         -4.1700    -2.4320    -3.5420 ha         1 6L4       0.138000
     36 H14         -2.8660    -0.2900     1.1350 hn         1 6L4       0.326500
     37 H15          0.4440    -1.9100     3.6750 ha         1 6L4       0.127000
     38 H16          0.7450    -2.6780     2.0240 ha         1 6L4       0.127000
     39 N06          1.7600    -0.4320    -0.3340 nu         1 6L4      -0.689300
     40 N22         -2.5150    -0.9480     0.4550 ns         1 6L4      -0.485100
     41 CL01        -1.7300     3.9460     0.8780 cl         1 6L4      -0.066400
@<TRIPOS>BOND
     1     1    12 1   
     2     1    24 1   
     3     1    25 1   
     4     1    26 1   
     5     2    18 ar  
     6     2    19 ar  
     7     2    27 1   
     8     3     4 ar  
     9     3    20 ar  
    10     3    28 1   
    11     4    18 ar  
    12     4    40 1   
    13     5    21 1   
    14     5    22 2   
    15     5    29 1   
    16     6     7 ar  
    17     6    16 ar  
    18     6    41 1   
    19     7     8 ar  
    20     7    30 1   
    21     8     9 ar  
    22     9    15 ar  
    23     9    39 1   
    24    10    11 2   
    25    10    14 1   
    26    10    39 1   
    27    11    12 1   
    28    11    32 1   
    29    12    13 1   
    30    13    14 2   
    31    14    33 1   
    32    15    16 ar  
    33    16    17 1   
    34    17    18 1   
    35    19    20 ar  
    36    19    34 1   
    37    20    35 1   
    38    21    23 2   
    39    21    40 1   
    40    22    37 1   
    41    22    38 1   
    42    31    39 1   
    43    36    40 1   
@<TRIPOS>SUBSTRUCTURE
     1 6L4         1 TEMP              0 ****  ****    0 ROOT
