@<TRIPOS>MOLECULE
6L5
   63    65     1     0     0
SMALL
No Charge or Current Charge


@<TRIPOS>ATOM
      1 N1           5.4930     0.6620    -2.2720 nb         1 6L5      -0.223000
      2 C2           6.0470     2.9200    -0.7890 ca         1 6L5       0.446900
      3 N3           5.6820    -0.5050    -0.0900 na         1 6L5      -0.314300
      4 C4           5.9780    -0.0160     1.1910 cc         1 6L5       0.426700
      5 C5           5.4490    -1.9090    -0.4660 c5         1 6L5       0.324300
      6 C6           5.4550    -3.0010     0.6590 c5         1 6L5       0.104300
      7 C8           3.1800    -2.3880     0.0110 c5         1 6L5       0.071300
      8 C11         -0.9780    -0.6590     0.7090 c3         1 6L5      -0.098400
      9 C12         -2.1600     0.1750     1.2500 c3         1 6L5      -0.075400
     10 C14         -4.4740     1.1990     0.7580 c3         1 6L5      -0.156400
     11 C15         -5.5800     1.3590    -0.2930 c          1 6L5       0.603100
     12 C16         -7.9270     0.6120    -0.9080 c3         1 6L5       0.058700
     13 C17         -9.0630     1.4600    -0.2650 c3         1 6L5      -0.232400
     14 C18         -8.6370     2.9220    -0.0810 c          1 6L5       0.715000
     15 C7           4.0340    -2.7850     1.2670 c5         1 6L5       0.094300
     16 N2           6.3290     4.0620    -0.1070 nv         1 6L5      -1.064900
     17 C9           2.2320    -1.2030     0.3760 c          1 6L5       0.594100
     18 C10          0.1460    -0.8470     1.7470 c3         1 6L5       0.105000
     19 C13         -3.2910     0.3640     0.2140 c3         1 6L5      -0.063400
     20 N4           6.1620     1.3180     1.1790 nd         1 6L5      -0.560100
     21 O13         -5.4700     2.1120    -1.2520 o          1 6L5      -0.639100
     22 N5           1.2450    -1.6620     1.2270 ns         1 6L5      -0.500900
     23 O1           2.2800    -0.0470    -0.0270 o          1 6L5      -0.586100
     24 O            4.1280    -2.0350    -1.0400 os         1 6L5      -0.408000
     25 O14          3.5590    -3.9880     1.8980 oh         1 6L5      -0.714000
     26 O15          5.5530    -4.3400     0.1490 oh         1 6L5      -0.702000
     27 C1           5.9740     1.6570    -0.1630 ca         1 6L5      -0.093600
     28 C            5.6900     0.5640    -0.9420 ca         1 6L5       0.112500
     29 C3           5.5840     1.9110    -2.7900 ca         1 6L5       0.174900
     30 N            5.8550     3.0530    -2.1110 nb         1 6L5      -0.306000
     31 N6          -6.7090     0.6060    -0.0670 ns         1 6L5      -0.456900
     32 C52         -8.3690    -0.8540    -1.2220 c          1 6L5       0.595100
     33 N21         -9.4300    -1.0050    -2.0500 nt         1 6L5      -0.611000
     34 O12         -7.8230    -1.8470    -0.7630 o          1 6L5      -0.636100
     35 O11         -8.8230     3.6910    -1.0110 o          1 6L5      -0.727000
     36 H1           6.0530    -0.6540     2.0640 h5         1 6L5       0.104800
     37 H2           6.2120    -2.1400    -1.2220 h2         1 6L5       0.125700
     38 H3           6.2480    -2.8180     1.3970 h1         1 6L5       0.077700
     39 H4           2.5650    -3.2250    -0.3440 h1         1 6L5       0.089700
     40 H5          -1.3440    -1.6440     0.3950 hc         1 6L5       0.052700
     41 H6          -0.5700    -0.1680    -0.1830 hc         1 6L5       0.052700
     42 H7          -2.5680    -0.3150     2.1430 hc         1 6L5       0.035200
     43 H8          -1.7920     1.1600     1.5650 hc         1 6L5       0.035200
     44 H9          -4.1020     2.1930     1.0290 hc         1 6L5       0.054200
     45 H10         -4.8730     0.6970     1.6480 hc         1 6L5       0.054200
     46 H11         -7.6810     1.0580    -1.8800 h1         1 6L5       0.089700
     47 H12         -9.9040     1.4170    -0.9670 hc         1 6L5       0.036200
     48 H13         -9.2780     0.9980     0.7060 hc         1 6L5       0.036200
     49 H15          4.0510    -1.9550     1.9890 h1         1 6L5       0.067700
     50 H16          6.6940     3.9500     0.8360 hn         1 6L5       0.504500
     51 H17          6.6620     4.8660    -0.6320 hn         1 6L5       0.504500
     52 H18          0.5380     0.1320     2.0520 h1         1 6L5       0.049700
     53 H19         -0.2600    -1.3410     2.6400 h1         1 6L5       0.049700
     54 H20         -2.8830     0.8550    -0.6800 hc         1 6L5       0.054200
     55 H21         -3.6590    -0.6200    -0.1030 hc         1 6L5       0.054200
     56 H22          1.3020    -2.6350     1.5090 hn         1 6L5       0.321500
     57 H23          3.8130    -3.9510     2.8540 ho         1 6L5       0.521000
     58 H24          4.7940    -4.8020     0.5880 ho         1 6L5       0.523000
     59 H25          5.4270     2.0070    -3.8630 h5         1 6L5       0.042100
     60 H26         -6.6880    -0.0120     0.7360 hn         1 6L5       0.326500
     61 H27         -9.8960    -0.1950    -2.4300 hn         1 6L5       0.303000
     62 H28         -9.7510    -1.9350    -2.2740 hn         1 6L5       0.303000
     63 O2          -8.1470     3.2530     0.9880 o          1 6L5      -0.727000
@<TRIPOS>BOND
     1     1    28 ar  
     2     1    29 ar  
     3     2    16 1   
     4     2    27 ar  
     5     2    30 ar  
     6     3     4 1   
     7     3     5 1   
     8     3    28 1   
     9     4    20 2   
    10     4    36 1   
    11     5     6 1   
    12     5    24 1   
    13     5    37 1   
    14     6    15 1   
    15     6    26 1   
    16     6    38 1   
    17     7    15 1   
    18     7    17 1   
    19     7    24 1   
    20     7    39 1   
    21     8     9 1   
    22     8    18 1   
    23     8    40 1   
    24     8    41 1   
    25     9    19 1   
    26     9    42 1   
    27     9    43 1   
    28    10    11 1   
    29    10    19 1   
    30    10    44 1   
    31    10    45 1   
    32    11    21 2   
    33    11    31 1   
    34    12    13 1   
    35    12    31 1   
    36    12    32 1   
    37    12    46 1   
    38    13    14 1   
    39    13    47 1   
    40    13    48 1   
    41    14    35 1   
    42    14    63 1   
    43    15    25 1   
    44    15    49 1   
    45    16    50 1   
    46    16    51 1   
    47    17    22 1   
    48    17    23 2   
    49    18    22 1   
    50    18    52 1   
    51    18    53 1   
    52    19    54 1   
    53    19    55 1   
    54    20    27 1   
    55    22    56 1   
    56    25    57 1   
    57    26    58 1   
    58    27    28 ar  
    59    29    30 ar  
    60    29    59 1   
    61    31    60 1   
    62    32    33 1   
    63    32    34 2   
    64    33    61 1   
    65    33    62 1   
@<TRIPOS>SUBSTRUCTURE
     1 6L5         1 TEMP              0 ****  ****    0 ROOT
