@<TRIPOS>MOLECULE
6L5
   63    65     1     0     0
SMALL
bcc


@<TRIPOS>ATOM
      1 N1           7.9680    -0.1980    -1.1130 nb         1 6L5      -0.749000
      2 C2           8.1280     2.5340    -0.4820 ca         1 6L5       0.775200
      3 N3           5.5890     0.1500    -0.8050 na         1 6L5      -0.285000
      4 C4           4.8600     1.2620    -0.4800 cc         1 6L5       0.426700
      5 C5           5.1200    -1.2000    -1.0920 c5         1 6L5       0.271800
      6 C6           5.3720    -2.1490     0.0760 c5         1 6L5       0.081100
      7 C8           3.0520    -1.8330    -0.2590 c5         1 6L5       0.048100
      8 C11         -1.3890    -1.0530     0.5060 c3         1 6L5      -0.098400
      9 C12         -2.6200    -0.4040     1.1250 c3         1 6L5      -0.075400
     10 C14         -5.0030     0.3510     0.7690 c3         1 6L5      -0.156400
     11 C15         -6.1780     0.4670    -0.1780 c          1 6L5       0.670100
     12 C16         -8.5820     0.7880    -0.3570 c3         1 6L5       0.058700
     13 C17         -9.7400     1.1320     0.5720 c3         1 6L5      -0.232400
     14 C18         -9.6270     2.5220     1.2370 c          1 6L5       0.925600
     15 C7           4.0740    -1.9830     0.8760 c5         1 6L5       0.071100
     16 N2           8.2630     3.8320    -0.1980 nv         1 6L5      -0.954500
     17 C9           1.8350    -1.0230     0.1630 c          1 6L5       0.661100
     18 C10         -0.2250    -1.1150     1.4880 c3         1 6L5       0.105000
     19 C13         -3.7890    -0.3260     0.1510 c3         1 6L5      -0.063400
     20 N4           5.5960     2.3210    -0.3000 nd         1 6L5      -0.560100
     21 O13         -6.0550     0.4450    -1.3960 o          1 6L5      -0.639100
     22 N5           0.9710    -1.7060     0.9210 ns         1 6L5      -0.567900
     23 O1           1.6950     0.1530    -0.1400 o          1 6L5      -0.586100
     24 O            3.7380    -1.1730    -1.3000 os         1 6L5      -0.361600
     25 O14          3.7550    -3.0800     1.6780 oh         1 6L5      -0.591800
     26 O15          5.4700    -3.4390    -0.4570 oh         1 6L5      -0.579800
     27 C1           6.8780     1.8900    -0.5190 ca         1 6L5      -0.224200
     28 C            6.8940     0.5420    -0.8380 ca         1 6L5       0.440800
     29 C3           9.0790     0.5160    -1.0490 ca         1 6L5       0.700900
     30 N            9.2170     1.8060    -0.7540 nb         1 6L5      -0.832000
     31 N6          -7.3740     0.6300     0.4090 ns         1 6L5      -0.523900
     32 C52         -8.8990    -0.4970    -1.1220 c          1 6L5       0.662100
     33 N21         -9.5620    -0.3030    -2.2710 nt         1 6L5      -0.678000
     34 O12         -8.6100    -1.6010    -0.6900 o          1 6L5      -0.636100
     35 O11         -8.9930     3.3970     0.6200 o          1 6L5      -0.832300
     36 H1           3.7840     1.2310    -0.3970 h5         1 6L5       0.104800
     37 H2           5.6330    -1.5350    -1.9970 h2         1 6L5       0.125700
     38 H3           6.2610    -1.8690     0.6530 h1         1 6L5       0.077700
     39 H4           2.7340    -2.8280    -0.5950 h1         1 6L5       0.089700
     40 H5          -1.6330    -2.0650     0.1710 hc         1 6L5       0.052700
     41 H6          -1.0850    -0.4900    -0.3810 hc         1 6L5       0.052700
     42 H7          -2.9220    -0.9630     2.0170 hc         1 6L5       0.035200
     43 H8          -2.3660     0.6050     1.4680 hc         1 6L5       0.035200
     44 H9          -4.7390     1.3640     1.0920 hc         1 6L5       0.054200
     45 H10         -5.3080    -0.1790     1.6760 hc         1 6L5       0.054200
     46 H11         -8.4550     1.6080    -1.0680 h1         1 6L5       0.089700
     47 H12        -10.6700     1.1230    -0.0060 hc         1 6L5       0.036200
     48 H13         -9.8520     0.3520     1.3310 hc         1 6L5       0.036200
     49 H15          4.1260    -1.0560     1.4610 h1         1 6L5       0.067700
     50 H16          7.4710     4.3820     0.0840 hn         1 6L5       0.449300
     51 H17          9.1790     4.2320    -0.0940 hn         1 6L5       0.449300
     52 H18          0.0110    -0.1150     1.8560 h1         1 6L5       0.049700
     53 H19         -0.5010    -1.7140     2.3560 h1         1 6L5       0.049700
     54 H20         -3.4780     0.2190    -0.7440 hc         1 6L5       0.054200
     55 H21         -4.0570    -1.3340    -0.1780 hc         1 6L5       0.054200
     56 H22          1.1630    -2.6730     1.1250 hn         1 6L5       0.321500
     57 H23          4.0550    -2.9120     2.5760 ho         1 6L5       0.422000
     58 H24          5.3250    -4.0710     0.2570 ho         1 6L5       0.424000
     59 H25         10.0000    -0.0140    -1.2630 h5         1 6L5       0.042100
     60 H26         -7.4400     0.5890     1.4130 hn         1 6L5       0.326500
     61 H27         -9.7580     0.6180    -2.6220 hn         1 6L5       0.303000
     62 H28         -9.8820    -1.0850    -2.8190 hn         1 6L5       0.303000
     63 O2         -10.2240     2.6540     2.3230 o          1 6L5      -0.832300
@<TRIPOS>BOND
     1     1    28 ar  
     2     1    29 ar  
     3     2    16 1   
     4     2    27 ar  
     5     2    30 ar  
     6     3     4 1   
     7     3     5 1   
     8     3    28 1   
     9     4    20 2   
    10     4    36 1   
    11     5     6 1   
    12     5    24 1   
    13     5    37 1   
    14     6    15 1   
    15     6    26 1   
    16     6    38 1   
    17     7    15 1   
    18     7    17 1   
    19     7    24 1   
    20     7    39 1   
    21     8     9 1   
    22     8    18 1   
    23     8    40 1   
    24     8    41 1   
    25     9    19 1   
    26     9    42 1   
    27     9    43 1   
    28    10    11 1   
    29    10    19 1   
    30    10    44 1   
    31    10    45 1   
    32    11    21 2   
    33    11    31 1   
    34    12    13 1   
    35    12    31 1   
    36    12    32 1   
    37    12    46 1   
    38    13    14 1   
    39    13    47 1   
    40    13    48 1   
    41    14    35 1   
    42    14    63 1   
    43    15    25 1   
    44    15    49 1   
    45    16    50 1   
    46    16    51 1   
    47    17    22 1   
    48    17    23 2   
    49    18    22 1   
    50    18    52 1   
    51    18    53 1   
    52    19    54 1   
    53    19    55 1   
    54    20    27 1   
    55    22    56 1   
    56    25    57 1   
    57    26    58 1   
    58    27    28 ar  
    59    29    30 ar  
    60    29    59 1   
    61    31    60 1   
    62    32    33 1   
    63    32    34 2   
    64    33    61 1   
    65    33    62 1   
@<TRIPOS>SUBSTRUCTURE
     1 6L5         1 TEMP              0 ****  ****    0 ROOT
