@<TRIPOS>MOLECULE
6L6
   24    24     1     0     0
SMALL
bcc


@<TRIPOS>ATOM
      1 C3           0.2630    -0.3970    -0.2770 ce         1 6L6       0.300900
      2 C4           1.6140     0.1620    -0.0960 ca         1 6L6      -0.058800
      3 C5           1.8320     1.5390    -0.1060 ca         1 6L6      -0.127000
      4 C6           3.1170     2.0290     0.0660 ca         1 6L6      -0.102000
      5 C7           4.1890     1.1720     0.2510 ca         1 6L6      -0.137000
      6 C8           3.9750    -0.2060     0.2560 ca         1 6L6       0.132100
      7 C10         -4.9470     0.3110     0.2340 c3         1 6L6      -0.031000
      8 O1           0.2560    -1.6090    -0.7750 oh         1 6L6      -0.487100
      9 C1          -2.2050    -0.1310    -0.0590 cs         1 6L6       0.343200
     10 C2          -0.8600     0.3100     0.0780 cf         1 6L6      -0.372200
     11 C9           2.6920    -0.7080     0.0750 ca         1 6L6      -0.178000
     12 S1          -2.6930    -1.6170    -0.6450 s          1 6L6      -0.568400
     13 S2          -3.3410     1.0760     0.4690 ss         1 6L6      -0.132700
     14 O8           5.0430    -1.0030     0.4400 oh         1 6L6      -0.491100
     15 H1           1.0190     2.2310    -0.2750 ha         1 6L6       0.143000
     16 H2           3.2880     3.0970     0.0480 ha         1 6L6       0.140000
     17 H3           5.1900     1.5620     0.3870 ha         1 6L6       0.152000
     18 H4          -5.1080     0.0490    -0.8090 h1         1 6L6       0.080700
     19 H5          -5.0540    -0.5740     0.8580 h1         1 6L6       0.080700
     20 H6          -5.6760     1.0600     0.5390 h1         1 6L6       0.080700
     21 H7          -0.7000     1.2840     0.5200 ha         1 6L6       0.157000
     22 H9           2.5360    -1.7800     0.0870 ha         1 6L6       0.149000
     23 H10          4.7850    -1.9310     0.4060 ho         1 6L6       0.431000
     24 H11         -0.6770    -1.9420    -0.8430 ho         1 6L6       0.496000
@<TRIPOS>BOND
     1     1     2 1   
     2     1     8 1   
     3     1    10 2   
     4     2     3 ar  
     5     2    11 ar  
     6     3     4 ar  
     7     3    15 1   
     8     4     5 ar  
     9     4    16 1   
    10     5     6 ar  
    11     5    17 1   
    12     6    11 ar  
    13     6    14 1   
    14     7    13 1   
    15     7    18 1   
    16     7    19 1   
    17     7    20 1   
    18     8    24 1   
    19     9    10 1   
    20     9    12 2   
    21     9    13 1   
    22    10    21 1   
    23    11    22 1   
    24    14    23 1   
@<TRIPOS>SUBSTRUCTURE
     1 6L6         1 TEMP              0 ****  ****    0 ROOT
