@<TRIPOS>MOLECULE
6L6
   24    24     1     0     0
SMALL
No Charge or Current Charge


@<TRIPOS>ATOM
      1 C3           0.2580    -0.3580    -0.2930 ce         1 6L6       0.300900
      2 C4           1.6480     0.1720    -0.1080 ca         1 6L6      -0.058800
      3 C5           1.8990     1.5610    -0.1670 ca         1 6L6      -0.109000
      4 C6           3.2010     2.0610     0.0070 ca         1 6L6      -0.084000
      5 C7           4.2680     1.1790     0.2420 ca         1 6L6      -0.119000
      6 C8           4.0340    -0.2030     0.3000 ca         1 6L6       0.132100
      7 C10         -5.0230     0.2790     0.2820 c3         1 6L6       0.016900
      8 O1           0.1830    -1.5750    -0.8710 oh         1 6L6      -0.526100
      9 C1          -2.2080    -0.1710    -0.0820 cs         1 6L6       0.343200
     10 C2          -0.8840     0.2850     0.0740 cf         1 6L6      -0.422200
     11 C9           2.7330    -0.7050     0.1250 ca         1 6L6      -0.160000
     12 S1          -2.6950    -1.6190    -0.7700 s          1 6L6      -0.568400
     13 S2          -3.3560     1.0250     0.5640 ss         1 6L6      -0.180600
     14 O8           5.0750    -1.0530     0.5280 oh         1 6L6      -0.530100
     15 H1           1.0890     2.2590    -0.3620 ha         1 6L6       0.125000
     16 H2           3.3830     3.1330    -0.0430 ha         1 6L6       0.122000
     17 H3           5.2750     1.5650     0.3760 ha         1 6L6       0.134000
     18 H4          -5.1780     0.1120    -0.7910 h1         1 6L6       0.080700
     19 H5          -5.0970    -0.6770     0.8130 h1         1 6L6       0.080700
     20 H6          -5.7980     0.9590     0.6550 h1         1 6L6       0.080700
     21 H7          -0.7690     1.2560     0.5540 ha         1 6L6       0.207000
     22 H9           2.5590    -1.7770     0.1780 ha         1 6L6       0.131000
     23 H10          4.7330    -1.9730     0.5330 ho         1 6L6       0.470000
     24 H11         -0.7900    -1.7510    -0.9140 ho         1 6L6       0.535000
@<TRIPOS>BOND
     1     1     2 1   
     2     1     8 1   
     3     1    10 2   
     4     2     3 ar  
     5     2    11 ar  
     6     3     4 ar  
     7     3    15 1   
     8     4     5 ar  
     9     4    16 1   
    10     5     6 ar  
    11     5    17 1   
    12     6    11 ar  
    13     6    14 1   
    14     7    13 1   
    15     7    18 1   
    16     7    19 1   
    17     7    20 1   
    18     8    24 1   
    19     9    10 1   
    20     9    12 2   
    21     9    13 1   
    22    10    21 1   
    23    11    22 1   
    24    14    23 1   
@<TRIPOS>SUBSTRUCTURE
     1 6L6         1 TEMP              0 ****  ****    0 ROOT
