@<TRIPOS>MOLECULE
6L7
   57    59     1     0     0
SMALL
bcc


@<TRIPOS>ATOM
      1 C1           3.3940    -0.3730    -0.2840 ca         1 6L7       0.493800
      2 C2           3.8360    -0.0810    -1.5630 ca         1 6L7      -0.253200
      3 C3           4.8220    -0.9350    -2.0920 ca         1 6L7       0.796200
      4 C4           4.7210    -2.1100    -0.1160 ca         1 6L7       0.747900
      5 C5           2.3980     1.3950    -1.1050 cc         1 6L7       0.336700
      6 C6           1.6980     0.6760     1.2080 c5         1 6L7       0.263800
      7 C7           1.6030     2.0730     1.8150 c5         1 6L7       0.078100
      8 N1           3.1970     1.0280    -2.0580 nd         1 6L7      -0.511100
      9 N2           2.4670     0.5920     0.0050 na         1 6L7      -0.272000
     10 N3           5.2420    -1.9500    -1.3290 nb         1 6L7      -0.797000
     11 C8           0.3310     1.9410     2.6620 c5         1 6L7       0.104100
     12 N4           3.8000    -1.3770     0.4850 nb         1 6L7      -0.758000
     13 N5           5.3490    -0.7640    -3.3040 nv         1 6L7      -0.929500
     14 C9          -0.5300     1.0440     1.7740 c5         1 6L7       0.115100
     15 C10         -1.4590     1.8460     0.8820 c3         1 6L7       0.101800
     16 O1           0.3610     0.3010     0.9470 os         1 6L7      -0.453600
     17 O2           0.5860     1.2490     3.8510 oh         1 6L7      -0.570800
     18 O3           2.7580     2.3530     2.5400 oh         1 6L7      -0.542800
     19 N6          -2.1830     0.9450    -0.0770 nx         1 6L7      -0.686400
     20 C11         -2.5800     1.6640    -1.3220 c3         1 6L7       0.086800
     21 C12         -1.3810     1.8620    -2.2320 c3         1 6L7       0.104800
     22 N7          -1.8130     2.5020    -3.4900 nz         1 6L7      -0.834600
     23 C13         -3.3700     0.3070     0.5880 c3         1 6L7       0.107800
     24 C14         -3.8220    -0.9530    -0.1290 c3         1 6L7      -0.117400
     25 C15         -5.0550    -1.5560     0.5160 c3         1 6L7      -0.047500
     26 C16         -5.6360    -2.7700    -0.2770 c          1 6L7       0.932600
     27 O4          -5.6680    -2.6520    -1.5030 o          1 6L7      -0.714300
     28 O5          -6.0320    -3.7110     0.4370 o          1 6L7      -0.714300
     29 N8          -4.8040    -2.0320     1.9030 nz         1 6L7      -0.853600
     30 HC4          5.1050    -2.9530     0.4480 h5         1 6L7       0.072100
     31 HC5          1.7450     2.2540    -1.1530 h5         1 6L7       0.019800
     32 HC6          2.1630    -0.0140     1.9200 h2         1 6L7       0.157700
     33 HC7          1.4290     2.8180     1.0280 h1         1 6L7       0.031700
     34 HC8         -0.1410     2.9150     2.8450 h1         1 6L7       0.064700
     35 HN5A         5.0100    -0.0480    -3.9220 hn         1 6L7       0.463800
     36 HN5B         6.0220    -1.4210    -3.6600 hn         1 6L7       0.463800
     37 HC9         -1.1030     0.3530     2.4000 h1         1 6L7       0.107700
     38 H10B        -2.2130     2.3740     1.4640 hx         1 6L7       0.099700
     39 H10A        -0.9080     2.5890     0.3070 hx         1 6L7       0.099700
     40 HO2          1.3550     1.6510     4.2740 ho         1 6L7       0.462000
     41 HO3          2.8600     3.3070     2.6170 ho         1 6L7       0.440000
     42 HN6         -1.5400     0.1900    -0.3420 hn         1 6L7       0.477800
     43 H11B        -3.3340     1.0640    -1.8280 hx         1 6L7       0.124200
     44 H11A        -3.0300     2.6100    -1.0240 hx         1 6L7       0.124200
     45 H12B        -0.6290     2.5150    -1.7970 hx         1 6L7       0.132200
     46 H12A        -0.9230     0.9120    -2.5000 hx         1 6L7       0.132200
     47 HN7C        -2.4970     1.9410    -3.9990 hn         1 6L7       0.482800
     48 HN7B        -2.2210     3.4260    -3.3400 hn         1 6L7       0.482800
     49 HN7A        -1.0170     2.6330    -4.1160 hn         1 6L7       0.482800
     50 H13B        -3.0680     0.0900     1.6110 hx         1 6L7       0.098200
     51 H13A        -4.1530     1.0640     0.6260 hx         1 6L7       0.098200
     52 H14A        -4.0950    -0.7420    -1.1630 hc         1 6L7       0.100700
     53 H14B        -3.0120    -1.6880    -0.1540 hc         1 6L7       0.100700
     54 HC15        -5.8420    -0.8020     0.5900 hx         1 6L7       0.097700
     55 HN8B        -5.0460    -1.3620     2.6300 hn         1 6L7       0.455467
     56 HN8C        -5.4000    -2.8750     1.9920 hn         1 6L7       0.455467
     57 HN8A        -3.8430    -2.3350     2.0610 hn         1 6L7       0.455467
@<TRIPOS>BOND
     1     1     2 ar  
     2     1     9 1   
     3     1    12 ar  
     4     2     3 ar  
     5     2     8 1   
     6     3    10 ar  
     7     3    13 1   
     8     4    10 ar  
     9     4    12 ar  
    10     4    30 1   
    11     5     8 2   
    12     5     9 1   
    13     5    31 1   
    14     6     7 1   
    15     6     9 1   
    16     6    16 1   
    17     6    32 1   
    18     7    11 1   
    19     7    18 1   
    20     7    33 1   
    21    11    14 1   
    22    11    17 1   
    23    11    34 1   
    24    13    35 1   
    25    13    36 1   
    26    14    15 1   
    27    14    16 1   
    28    14    37 1   
    29    15    19 1   
    30    15    38 1   
    31    15    39 1   
    32    17    40 1   
    33    18    41 1   
    34    19    20 1   
    35    19    23 1   
    36    19    42 1   
    37    20    21 1   
    38    20    43 1   
    39    20    44 1   
    40    21    22 1   
    41    21    45 1   
    42    21    46 1   
    43    22    47 1   
    44    22    48 1   
    45    22    49 1   
    46    23    24 1   
    47    23    50 1   
    48    23    51 1   
    49    24    25 1   
    50    24    52 1   
    51    24    53 1   
    52    25    26 1   
    53    25    29 1   
    54    25    54 1   
    55    26    27 1   
    56    26    28 1   
    57    29    55 1   
    58    29    56 1   
    59    29    57 1   
@<TRIPOS>SUBSTRUCTURE
     1 6L7         1 TEMP              0 ****  ****    0 ROOT
