@<TRIPOS>MOLECULE
6L7
   57    59     1     0     0
SMALL
No Charge or Current Charge


@<TRIPOS>ATOM
      1 C1           1.7150    -0.2260    -0.2260 ca         1 6L7       0.165500
      2 C2           2.3110    -0.0110    -1.4420 ca         1 6L7      -0.122600
      3 C3           2.2640    -1.0410    -2.4010 ca         1 6L7       0.467900
      4 C4           1.0820    -2.3150    -0.9160 ca         1 6L7       0.221900
      5 C5           2.6370     1.7990    -0.3330 cc         1 6L7       0.336700
      6 C6           1.5520     1.1770     1.8940 c5         1 6L7       0.316300
      7 C7           1.4490     2.6910     2.3590 c5         1 6L7       0.101300
      8 N1           2.8890     1.2560    -1.5350 nd         1 6L7      -0.511100
      9 N2           1.9040     0.9300     0.4860 na         1 6L7      -0.301300
     10 N3           1.6420    -2.2010    -2.1440 nb         1 6L7      -0.271000
     11 C8           0.0300     2.7800     3.0080 c5         1 6L7       0.127300
     12 N4           1.0800    -1.3780     0.0630 nb         1 6L7      -0.232000
     13 N5           2.8290    -0.9150    -3.6310 nv         1 6L7      -1.039900
     14 C9          -0.7230     1.6540     2.2440 c5         1 6L7       0.138300
     15 C10         -1.1690     2.0150     0.8050 c3         1 6L7       0.073600
     16 O1           0.2560     0.5950     2.1790 os         1 6L7      -0.500000
     17 O2           0.1370     2.5230     4.4120 oh         1 6L7      -0.693000
     18 O3           2.4520     3.0770     3.3240 oh         1 6L7      -0.665000
     19 N6          -1.4510     0.8220    -0.1200 nx         1 6L7      -0.657000
     20 C11         -1.6580     1.2420    -1.5880 c3         1 6L7       0.058600
     21 C12         -0.4840     2.0290    -2.2090 c3         1 6L7       0.076600
     22 N7          -0.7500     2.3980    -3.6580 nz         1 6L7      -0.972000
     23 C13         -2.6110    -0.0260     0.4070 c3         1 6L7       0.079600
     24 C14         -2.7490    -1.3910    -0.2930 c3         1 6L7      -0.117400
     25 C15         -3.8810    -2.2690     0.2860 c3         1 6L7      -0.075700
     26 C16         -4.1420    -3.5140    -0.6350 c          1 6L7       0.722000
     27 O4          -5.1290    -3.4860    -1.3530 o          1 6L7      -0.609000
     28 O5          -3.4270    -4.4930    -0.4780 o          1 6L7      -0.609000
     29 N8          -3.5930    -2.6470     1.7510 nz         1 6L7      -0.991000
     30 HC4          0.5750    -3.2530    -0.6950 h5         1 6L7       0.072100
     31 HC5          2.9580     2.7800    -0.0080 h5         1 6L7       0.019800
     32 HC6          2.3180     0.6560     2.4850 h2         1 6L7       0.157700
     33 HC7          1.4820     3.3670     1.4950 h1         1 6L7       0.031700
     34 HC8         -0.4310     3.7630     2.8330 h1         1 6L7       0.064700
     35 HN5A         3.1380     0.0130    -3.9080 hn         1 6L7       0.519000
     36 HN5B         2.5420    -1.5500    -4.3710 hn         1 6L7       0.519000
     37 HC9         -1.5990     1.3040     2.8070 h1         1 6L7       0.107700
     38 H10B        -2.0640     2.6400     0.8660 hx         1 6L7       0.099700
     39 H10A        -0.3710     2.6110     0.3590 hx         1 6L7       0.099700
     40 HO2          1.1030     2.6840     4.5790 ho         1 6L7       0.561000
     41 HO3          3.2390     3.4160     2.8290 ho         1 6L7       0.539000
     42 HN6         -0.5970     0.2160    -0.0520 hn         1 6L7       0.533000
     43 H11B        -1.8280     0.3450    -2.1880 hx         1 6L7       0.124200
     44 H11A        -2.5620     1.8540    -1.6410 hx         1 6L7       0.124200
     45 H12B        -0.3160     2.9440    -1.6310 hx         1 6L7       0.132200
     46 H12A         0.4260     1.4220    -2.1550 hx         1 6L7       0.132200
     47 HN7C        -0.8940     1.5880    -4.2830 hn         1 6L7       0.538000
     48 HN7B        -1.5800     2.9990    -3.7950 hn         1 6L7       0.538000
     49 HN7A         0.0260     2.9260    -4.0930 hn         1 6L7       0.538000
     50 H13B        -2.4460    -0.2000     1.4730 hx         1 6L7       0.098200
     51 H13A        -3.5400     0.5400     0.2940 hx         1 6L7       0.098200
     52 H14A        -2.9530    -1.2280    -1.3580 hc         1 6L7       0.100700
     53 H14B        -1.8010    -1.9370    -0.2320 hc         1 6L7       0.100700
     54 HC15        -4.8120    -1.6960     0.2580 hx         1 6L7       0.097700
     55 HN8B        -3.5150    -1.8510     2.4020 hn         1 6L7       0.510667
     56 HN8C        -4.3290    -3.2490     2.1580 hn         1 6L7       0.510667
     57 HN8A        -2.7270    -3.1990     1.8620 hn         1 6L7       0.510667
@<TRIPOS>BOND
     1     1     2 ar  
     2     1     9 1   
     3     1    12 ar  
     4     2     3 ar  
     5     2     8 1   
     6     3    10 ar  
     7     3    13 1   
     8     4    10 ar  
     9     4    12 ar  
    10     4    30 1   
    11     5     8 2   
    12     5     9 1   
    13     5    31 1   
    14     6     7 1   
    15     6     9 1   
    16     6    16 1   
    17     6    32 1   
    18     7    11 1   
    19     7    18 1   
    20     7    33 1   
    21    11    14 1   
    22    11    17 1   
    23    11    34 1   
    24    13    35 1   
    25    13    36 1   
    26    14    15 1   
    27    14    16 1   
    28    14    37 1   
    29    15    19 1   
    30    15    38 1   
    31    15    39 1   
    32    17    40 1   
    33    18    41 1   
    34    19    20 1   
    35    19    23 1   
    36    19    42 1   
    37    20    21 1   
    38    20    43 1   
    39    20    44 1   
    40    21    22 1   
    41    21    45 1   
    42    21    46 1   
    43    22    47 1   
    44    22    48 1   
    45    22    49 1   
    46    23    24 1   
    47    23    50 1   
    48    23    51 1   
    49    24    25 1   
    50    24    52 1   
    51    24    53 1   
    52    25    26 1   
    53    25    29 1   
    54    25    54 1   
    55    26    27 1   
    56    26    28 1   
    57    29    55 1   
    58    29    56 1   
    59    29    57 1   
@<TRIPOS>SUBSTRUCTURE
     1 6L7         1 TEMP              0 ****  ****    0 ROOT
