@<TRIPOS>MOLECULE
6L8
   42    44     1     0     0
SMALL
abcg2


@<TRIPOS>ATOM
      1 C9          -4.0930     0.6370    -0.0750 ca         1 6L8      -0.005000
      2 C10         -3.9020    -0.7360    -0.0830 ca         1 6L8      -0.213800
      3 C11         -2.6420    -1.2780     0.1250 ca         1 6L8      -0.007500
      4 C6          -1.5520    -0.4450     0.3440 ca         1 6L8      -0.123500
      5 C7          -1.7400     0.9340     0.3580 ca         1 6L8      -0.007500
      6 C8          -3.0030     1.4660     0.1510 ca         1 6L8      -0.213800
      7 C12         -3.1550     2.9570     0.1540 c3         1 6L8       0.361300
      8 C13         -5.0450    -1.6720    -0.3330 c3         1 6L8       0.361300
      9 F2          -6.2180    -1.0410    -0.4110 f          1 6L8      -0.110000
     10 F1          -4.8820    -2.3460    -1.4790 f          1 6L8      -0.110000
     11 F3          -5.1520    -2.5880     0.6380 f          1 6L8      -0.110000
     12 F6          -4.4330     3.3430     0.1340 f          1 6L8      -0.110000
     13 F5          -2.5920     3.5070     1.2360 f          1 6L8      -0.110000
     14 F4          -2.5590     3.5100    -0.9110 f          1 6L8      -0.110000
     15 C5          -0.2240    -1.0170     0.5600 cc         1 6L8       0.581500
     16 N3           0.0140    -2.3470     0.5950 nc         1 6L8      -0.696000
     17 C4           1.3070    -2.4120     0.8070 cd         1 6L8       0.444400
     18 N2           1.8150    -1.1790     0.9010 na         1 6L8      -0.059700
     19 N4           0.8480    -0.2780     0.7400 nd         1 6L8      -0.545800
     20 C3           3.1880    -0.7730     1.0940 c3         1 6L8       0.104600
     21 C2           3.7710    -0.1500    -0.1740 c3         1 6L8      -0.108400
     22 C1           5.1890     0.2970     0.0640 ca         1 6L8      -0.205300
     23 C14          5.5470     1.6360    -0.0100 ca         1 6L8       0.119900
     24 N5           6.7870     2.0580     0.1970 nb         1 6L8      -0.166500
     25 C15          7.6860     1.1310     0.4830 ca         1 6L8       0.125900
     26 N1           7.4640    -0.1710     0.5850 nb         1 6L8      -0.166500
     27 C16          6.2210    -0.5810     0.3750 ca         1 6L8       0.119900
     28 C17          3.7360    -1.1460    -1.3330 c          1 6L8       0.611100
     29 O1           3.9500    -2.3340    -1.1480 o          1 6L8      -0.611100
     30 N6           3.4890    -0.6070    -2.5280 nt         1 6L8      -0.590000
     31 H1          -5.0750     1.0560    -0.2400 ha         1 6L8       0.149000
     32 H2          -2.4920    -2.3500     0.1190 ha         1 6L8       0.151500
     33 H3          -0.8900     1.5810     0.5320 ha         1 6L8       0.151500
     34 H4           1.9030    -3.3060     0.9020 h5         1 6L8       0.081100
     35 H5           3.2250    -0.0530     1.9100 h1         1 6L8       0.081200
     36 H6           3.7490    -1.6550     1.3980 h1         1 6L8       0.081200
     37 H7           3.1780     0.7330    -0.4270 hc         1 6L8       0.083700
     38 H8           4.8020     2.3910    -0.2430 h4         1 6L8       0.034100
     39 H9           8.7020     1.4690     0.6520 h5         1 6L8       0.056100
     40 H10          6.0450    -1.6490     0.4520 h4         1 6L8       0.034100
     41 H11          3.3130     0.3760    -2.6450 hn         1 6L8       0.322000
     42 H12          3.5020    -1.1770    -3.3590 hn         1 6L8       0.322000
@<TRIPOS>BOND
     1     1     2 ar  
     2     1     6 ar  
     3     1    31 1   
     4     2     3 ar  
     5     2     8 1   
     6     3     4 ar  
     7     3    32 1   
     8     4     5 ar  
     9     4    15 1   
    10     5     6 ar  
    11     5    33 1   
    12     6     7 1   
    13     7    12 1   
    14     7    13 1   
    15     7    14 1   
    16     8     9 1   
    17     8    10 1   
    18     8    11 1   
    19    15    16 1   
    20    15    19 2   
    21    16    17 2   
    22    17    18 1   
    23    17    34 1   
    24    18    19 1   
    25    18    20 1   
    26    20    21 1   
    27    20    35 1   
    28    20    36 1   
    29    21    22 1   
    30    21    28 1   
    31    21    37 1   
    32    22    23 ar  
    33    22    27 ar  
    34    23    24 ar  
    35    23    38 1   
    36    24    25 ar  
    37    25    26 ar  
    38    25    39 1   
    39    26    27 ar  
    40    27    40 1   
    41    28    29 2   
    42    28    30 1   
    43    30    41 1   
    44    30    42 1   
@<TRIPOS>SUBSTRUCTURE
     1 6L8         1 TEMP              0 ****  ****    0 ROOT
