@<TRIPOS>MOLECULE
6L8
   42    44     1     0     0
SMALL
No Charge or Current Charge


@<TRIPOS>ATOM
      1 C9          -4.1770     0.6180    -0.0740 ca         1 6L8      -0.005000
      2 C10         -3.9820    -0.7780    -0.0720 ca         1 6L8      -0.213800
      3 C11         -2.6830    -1.2930     0.1220 ca         1 6L8      -0.007500
      4 C6          -1.5810    -0.4330     0.3260 ca         1 6L8      -0.123500
      5 C7          -1.8030     0.9620     0.3310 ca         1 6L8      -0.007500
      6 C8          -3.0940     1.4950     0.1390 ca         1 6L8      -0.213800
      7 C12         -3.3090     3.0120     0.1300 c3         1 6L8       0.361300
      8 C13         -5.1610    -1.7280    -0.3100 c3         1 6L8       0.361300
      9 F2          -6.3410    -1.2000     0.0900 f          1 6L8      -0.110000
     10 F1          -5.2880    -2.0320    -1.6200 f          1 6L8      -0.110000
     11 F3          -5.0200    -2.8980     0.3560 f          1 6L8      -0.110000
     12 F6          -4.5570     3.3600     0.5190 f          1 6L8      -0.110000
     13 F5          -2.4550     3.6570     0.9580 f          1 6L8      -0.110000
     14 F4          -3.1240     3.5260    -1.1060 f          1 6L8      -0.110000
     15 C5          -0.2240    -0.9720     0.5250 cc         1 6L8       0.581500
     16 N3          -0.0050    -2.3190     0.5170 nc         1 6L8      -0.696000
     17 C4           1.2950    -2.4230     0.7190 cd         1 6L8       0.444400
     18 N2           1.8220    -1.1450     0.8430 na         1 6L8      -0.059700
     19 N4           0.8350    -0.2060     0.7170 nd         1 6L8      -0.545800
     20 C3           3.2320    -0.7770     1.0680 c3         1 6L8       0.104600
     21 C2           3.9080    -0.1440    -0.1750 c3         1 6L8      -0.108400
     22 C1           5.3500     0.2960     0.1170 ca         1 6L8      -0.205300
     23 C14          5.7830     1.6070    -0.1690 ca         1 6L8       0.119900
     24 N5           7.0480     2.0060     0.0750 nb         1 6L8      -0.166500
     25 C15          7.8790     1.0850     0.6040 ca         1 6L8       0.125900
     26 N1           7.5730    -0.1940     0.9110 nb         1 6L8      -0.166500
     27 C16          6.3070    -0.5850     0.6640 ca         1 6L8       0.119900
     28 C17          3.8590    -1.1070    -1.3760 c          1 6L8       0.611100
     29 O1           4.2700    -2.2540    -1.3350 o          1 6L8      -0.611100
     30 N6           3.3660    -0.6070    -2.5290 nt         1 6L8      -0.590000
     31 H1          -5.1740     1.0230    -0.2460 ha         1 6L8       0.149000
     32 H2          -2.5320    -2.3710     0.1070 ha         1 6L8       0.151500
     33 H3          -0.9640     1.6400     0.4790 ha         1 6L8       0.151500
     34 H4           1.8940    -3.3250     0.7810 h5         1 6L8       0.081100
     35 H5           3.2730    -0.0640     1.9020 h1         1 6L8       0.081200
     36 H6           3.7820    -1.6750     1.3750 h1         1 6L8       0.081200
     37 H7           3.3330     0.7500    -0.4460 hc         1 6L8       0.083700
     38 H8           5.1120     2.3500    -0.5980 h4         1 6L8       0.034100
     39 H9           8.9010     1.4040     0.8020 h5         1 6L8       0.056100
     40 H10          6.0630    -1.6190     0.9060 h4         1 6L8       0.034100
     41 H11          3.0390     0.3470    -2.5720 hn         1 6L8       0.322000
     42 H12          3.3320    -1.1970    -3.3470 hn         1 6L8       0.322000
@<TRIPOS>BOND
     1     1     2 ar  
     2     1     6 ar  
     3     1    31 1   
     4     2     3 ar  
     5     2     8 1   
     6     3     4 ar  
     7     3    32 1   
     8     4     5 ar  
     9     4    15 1   
    10     5     6 ar  
    11     5    33 1   
    12     6     7 1   
    13     7    12 1   
    14     7    13 1   
    15     7    14 1   
    16     8     9 1   
    17     8    10 1   
    18     8    11 1   
    19    15    16 1   
    20    15    19 2   
    21    16    17 2   
    22    17    18 1   
    23    17    34 1   
    24    18    19 1   
    25    18    20 1   
    26    20    21 1   
    27    20    35 1   
    28    20    36 1   
    29    21    22 1   
    30    21    28 1   
    31    21    37 1   
    32    22    23 ar  
    33    22    27 ar  
    34    23    24 ar  
    35    23    38 1   
    36    24    25 ar  
    37    25    26 ar  
    38    25    39 1   
    39    26    27 ar  
    40    27    40 1   
    41    28    29 2   
    42    28    30 1   
    43    30    41 1   
    44    30    42 1   
@<TRIPOS>SUBSTRUCTURE
     1 6L8         1 TEMP              0 ****  ****    0 ROOT
