@<TRIPOS>MOLECULE
6L9
   21    20     1     0     0
SMALL
abcg2


@<TRIPOS>ATOM
      1 O2          -3.3510     0.5520     0.3150 o          1 6L9      -0.775250
      2 CD1         -2.2240     1.0020     0.0220 c          1 6L9       0.739000
      3 O3          -1.9990     2.0820    -0.5610 o          1 6L9      -0.775250
      4 CG          -1.0200     0.1250     0.4300 c3         1 6L9      -0.307700
      5 CD2         -1.2860    -1.3080    -0.0680 c          1 6L9       0.739000
      6 O4          -1.1030    -1.5070    -1.2900 o          1 6L9      -0.775250
      7 O5          -1.6640    -2.1630     0.7590 o          1 6L9      -0.775250
      8 CB           0.3100     0.6490    -0.0890 c3         1 6L9      -0.012400
      9 CA           1.5160    -0.1390     0.4410 c3         1 6L9       0.078500
     10 N            1.6570     0.0430     1.8690 n8         1 6L9      -0.951200
     11 C            2.7520     0.2750    -0.3580 c          1 6L9       0.562100
     12 O            3.5540     1.1040     0.0530 o          1 6L9      -0.687100
     13 N1           2.8690    -0.3250    -1.5540 nt         1 6L9      -0.608000
     14 H2          -0.9690     0.1060     1.5250 hc         1 6L9       0.035700
     15 H4           0.3050     0.6180    -1.1800 hc         1 6L9       0.034200
     16 H5           0.4390     1.6990     0.1900 hc         1 6L9       0.034200
     17 H6           1.3470    -1.2050     0.2540 h1         1 6L9       0.089700
     18 H7           2.4180    -0.5260     2.2180 hn         1 6L9       0.371500
     19 H8           1.9210     1.0030     2.0590 hn         1 6L9       0.371500
     20 H10          2.1680    -0.9670    -1.8830 hn         1 6L9       0.305000
     21 H11          3.5800    -0.0390    -2.2090 hn         1 6L9       0.305000
@<TRIPOS>BOND
     1     1     2 1   
     2     2     3 1   
     3     2     4 1   
     4     4     5 1   
     5     4     8 1   
     6     4    14 1   
     7     5     6 1   
     8     5     7 1   
     9     8     9 1   
    10     8    15 1   
    11     8    16 1   
    12     9    10 1   
    13     9    11 1   
    14     9    17 1   
    15    10    18 1   
    16    10    19 1   
    17    11    12 2   
    18    11    13 1   
    19    13    20 1   
    20    13    21 1   
@<TRIPOS>SUBSTRUCTURE
     1 6L9         1 TEMP              0 ****  ****    0 ROOT
