@<TRIPOS>MOLECULE
6L9
   21    20     1     0     0
SMALL
No Charge or Current Charge


@<TRIPOS>ATOM
      1 O2          -3.0210     1.3550     0.7770 o          1 6L9      -0.775250
      2 CD1         -2.2510     0.9390    -0.0750 c          1 6L9       0.739000
      3 O3          -2.3400     1.2540    -1.2520 o          1 6L9      -0.775250
      4 CG          -1.0870     0.0740     0.3860 c3         1 6L9      -0.307700
      5 CD2         -1.3500    -1.3380    -0.1180 c          1 6L9       0.739000
      6 O4          -1.1610    -1.6000    -1.2960 o          1 6L9      -0.775250
      7 O5          -1.6710    -2.1860     0.7010 o          1 6L9      -0.775250
      8 CB           0.2990     0.6460    -0.0420 c3         1 6L9      -0.012400
      9 CA           1.5330    -0.1570     0.4690 c3         1 6L9       0.078500
     10 N            1.6360    -0.0930     1.9710 n8         1 6L9      -0.951200
     11 C            2.8410     0.2590    -0.3040 c          1 6L9       0.562100
     12 O            3.7980     0.8090     0.2220 o          1 6L9      -0.687100
     13 N1           2.8900    -0.0350    -1.6230 nt         1 6L9      -0.608000
     14 H2          -1.1470     0.0390     1.4800 hc         1 6L9       0.035700
     15 H4           0.3320     0.6960    -1.1370 hc         1 6L9       0.034200
     16 H5           0.3820     1.6830     0.3070 hc         1 6L9       0.034200
     17 H6           1.3730    -1.2100     0.1960 h1         1 6L9       0.089700
     18 H7           2.4530    -0.6380     2.2700 hn         1 6L9       0.371500
     19 H8           1.8880     0.8650     2.2380 hn         1 6L9       0.371500
     20 H10          2.1090    -0.4940    -2.0710 hn         1 6L9       0.305000
     21 H11          3.7120     0.2100    -2.1540 hn         1 6L9       0.305000
@<TRIPOS>BOND
     1     1     2 1   
     2     2     3 1   
     3     2     4 1   
     4     4     5 1   
     5     4     8 1   
     6     4    14 1   
     7     5     6 1   
     8     5     7 1   
     9     8     9 1   
    10     8    15 1   
    11     8    16 1   
    12     9    10 1   
    13     9    11 1   
    14     9    17 1   
    15    10    18 1   
    16    10    19 1   
    17    11    12 2   
    18    11    13 1   
    19    13    20 1   
    20    13    21 1   
@<TRIPOS>SUBSTRUCTURE
     1 6L9         1 TEMP              0 ****  ****    0 ROOT
