@<TRIPOS>MOLECULE
6LA
   39    40     1     0     0
SMALL
No Charge or Current Charge


@<TRIPOS>ATOM
      1 C8          17.6240   -18.2330    -1.3190 c3         1 6LA      -0.175100
      2 C7          18.1090   -16.8280    -1.6450 c          1 6LA       0.615100
      3 O7          19.2460   -16.4450    -1.4120 o          1 6LA      -0.646100
      4 N2          17.1880   -16.0130    -2.2490 ns         1 6LA      -0.472900
      5 C2          17.3620   -14.5700    -2.5690 c6         1 6LA       0.048700
      6 C3          18.3330   -14.3200    -3.7720 c6         1 6LA       0.167300
      7 O3          19.6440   -14.8590    -3.5110 oh         1 6LA      -0.672000
      8 C4          17.7060   -14.8880    -5.0850 c6         1 6LA       0.155300
      9 O4          18.5250   -14.6600    -6.2610 os         1 6LA      -0.448000
     10 CAB         17.9620   -15.2140    -7.4900 c6         1 6LA       0.226000
     11 CAK         18.8630   -14.6960    -8.6410 c3         1 6LA      -0.057100
     12 CAL         17.9560   -16.8230    -7.5730 c          1 6LA       0.693000
     13 OAN         16.9710   -17.3620    -8.0680 o          1 6LA      -0.702000
     14 OAM         18.6580   -17.4400    -6.7780 o          1 6LA      -0.702000
     15 O6          16.6580   -14.5850    -7.6900 os         1 6LA      -0.464000
     16 C6          15.7170   -14.7910    -6.6060 c6         1 6LA       0.180600
     17 C5          16.3160   -14.2370    -5.2940 c6         1 6LA       0.085300
     18 O5          15.4750   -14.4950    -4.1460 os         1 6LA      -0.483000
     19 C1          15.9870   -13.9170    -2.9250 c6         1 6LA       0.381300
     20 O1          15.0350   -14.1550    -1.8760 os         1 6LA      -0.438000
     21 CAU         13.7680   -13.4910    -2.0060 c3         1 6LA       0.153900
     22 H1          18.4010   -18.8500    -0.8530 hc         1 6LA       0.056700
     23 H2          16.7290   -18.1650    -0.6910 hc         1 6LA       0.056700
     24 H3          17.2340   -18.6970    -2.2320 hc         1 6LA       0.056700
     25 H4          16.2670   -16.4120    -2.3960 hn         1 6LA       0.334500
     26 H5          17.7590   -14.0620    -1.6790 h1         1 6LA       0.076700
     27 H6          18.4250   -13.2310    -3.8990 h1         1 6LA       0.026700
     28 H7          19.5470   -15.4510    -2.7140 ho         1 6LA       0.495000
     29 H8          17.5690   -15.9710    -4.9560 h1         1 6LA       0.087700
     30 H9          19.8860   -15.0790    -8.5430 hc         1 6LA       0.036367
     31 H10         18.4820   -15.0200    -9.6160 hc         1 6LA       0.036367
     32 H11         18.9140   -13.6010    -8.6480 hc         1 6LA       0.036367
     33 H13         14.7800   -14.2680    -6.8410 h1         1 6LA       0.053700
     34 H14         15.4950   -15.8630    -6.5010 h1         1 6LA       0.053700
     35 H15         16.4350   -13.1480    -5.3990 h1         1 6LA       0.035700
     36 H16         16.1190   -12.8320    -3.0560 h2         1 6LA       0.019700
     37 H17         13.1300   -13.7150    -1.1410 h1         1 6LA       0.030033
     38 H18         13.9020   -12.4030    -2.0580 h1         1 6LA       0.030033
     39 H19         13.2410   -13.8210    -2.9110 h1         1 6LA       0.030033
@<TRIPOS>BOND
     1     1     2 1   
     2     1    22 1   
     3     1    23 1   
     4     1    24 1   
     5     2     3 2   
     6     2     4 1   
     7     4     5 1   
     8     4    25 1   
     9     5     6 1   
    10     5    19 1   
    11     5    26 1   
    12     6     7 1   
    13     6     8 1   
    14     6    27 1   
    15     7    28 1   
    16     8     9 1   
    17     8    17 1   
    18     8    29 1   
    19     9    10 1   
    20    10    11 1   
    21    10    12 1   
    22    10    15 1   
    23    11    30 1   
    24    11    31 1   
    25    11    32 1   
    26    12    13 1   
    27    12    14 1   
    28    15    16 1   
    29    16    17 1   
    30    16    33 1   
    31    16    34 1   
    32    17    18 1   
    33    17    35 1   
    34    18    19 1   
    35    19    20 1   
    36    19    36 1   
    37    20    21 1   
    38    21    37 1   
    39    21    38 1   
    40    21    39 1   
@<TRIPOS>SUBSTRUCTURE
     1 6LA         1 TEMP              0 ****  ****    0 ROOT
