@<TRIPOS>MOLECULE
6LA
   39    40     1     0     0
SMALL
bcc


@<TRIPOS>ATOM
      1 C8          17.5900   -18.1600    -1.1890 c3         1 6LA      -0.175100
      2 C7          17.8480   -16.6820    -1.3380 c          1 6LA       0.682100
      3 O7          18.6340   -16.0910    -0.6090 o          1 6LA      -0.646100
      4 N2          17.1580   -16.0760    -2.3230 ns         1 6LA      -0.539900
      5 C2          17.3250   -14.6870    -2.6660 c6         1 6LA       0.048700
      6 C3          18.3200   -14.4980    -3.8340 c6         1 6LA       0.144100
      7 O3          19.5160   -15.1940    -3.6230 oh         1 6LA      -0.549800
      8 C4          17.6700   -14.9970    -5.1100 c6         1 6LA       0.132100
      9 O4          18.4860   -14.7330    -6.2220 os         1 6LA      -0.401600
     10 CAB         17.9100   -15.1450    -7.4420 c6         1 6LA       0.179600
     11 CAK         18.8320   -14.6510    -8.5420 c3         1 6LA      -0.057100
     12 CAL         17.7870   -16.7060    -7.5560 c          1 6LA       0.903600
     13 OAN         16.9410   -17.1170    -8.3680 o          1 6LA      -0.807300
     14 OAM         18.5940   -17.3750    -6.8870 o          1 6LA      -0.807300
     15 O6          16.6720   -14.5010    -7.6320 os         1 6LA      -0.417600
     16 C6          15.7310   -14.7460    -6.6110 c6         1 6LA       0.157400
     17 C5          16.3310   -14.2890    -5.2930 c6         1 6LA       0.062100
     18 O5          15.4710   -14.5810    -4.2180 os         1 6LA      -0.436600
     19 C1          15.9820   -14.0420    -3.0170 c6         1 6LA       0.334900
     20 O1          15.0890   -14.2790    -2.0030 os         1 6LA      -0.391600
     21 CAU         13.8910   -13.5300    -2.0810 c3         1 6LA       0.130700
     22 H1          18.4970   -18.7090    -1.4440 hc         1 6LA       0.056700
     23 H2          17.3570   -18.3860    -0.1490 hc         1 6LA       0.056700
     24 H3          16.7800   -18.5310    -1.8160 hc         1 6LA       0.056700
     25 H4          16.5470   -16.6380    -2.8930 hn         1 6LA       0.334500
     26 H5          17.7210   -14.1690    -1.7890 h1         1 6LA       0.076700
     27 H6          18.4980   -13.4160    -3.9390 h1         1 6LA       0.026700
     28 H7          19.9190   -14.8760    -2.8080 ho         1 6LA       0.396000
     29 H8          17.4860   -16.0780    -5.0180 h1         1 6LA       0.087700
     30 H9          19.8160   -15.1090    -8.4470 hc         1 6LA       0.036367
     31 H10         18.4320   -14.9130    -9.5210 hc         1 6LA       0.036367
     32 H11         18.9500   -13.5670    -8.4960 hc         1 6LA       0.036367
     33 H13         14.8320   -14.1780    -6.8550 h1         1 6LA       0.053700
     34 H14         15.4530   -15.8070    -6.5530 h1         1 6LA       0.053700
     35 H15         16.5090   -13.2030    -5.3530 h1         1 6LA       0.035700
     36 H16         16.1470   -12.9570    -3.1610 h2         1 6LA       0.019700
     37 H17         13.3580   -13.6780    -1.1430 h1         1 6LA       0.030033
     38 H18         14.0920   -12.4600    -2.2010 h1         1 6LA       0.030033
     39 H19         13.2480   -13.8560    -2.9010 h1         1 6LA       0.030033
@<TRIPOS>BOND
     1     1     2 1   
     2     1    22 1   
     3     1    23 1   
     4     1    24 1   
     5     2     3 2   
     6     2     4 1   
     7     4     5 1   
     8     4    25 1   
     9     5     6 1   
    10     5    19 1   
    11     5    26 1   
    12     6     7 1   
    13     6     8 1   
    14     6    27 1   
    15     7    28 1   
    16     8     9 1   
    17     8    17 1   
    18     8    29 1   
    19     9    10 1   
    20    10    11 1   
    21    10    12 1   
    22    10    15 1   
    23    11    30 1   
    24    11    31 1   
    25    11    32 1   
    26    12    13 1   
    27    12    14 1   
    28    15    16 1   
    29    16    17 1   
    30    16    33 1   
    31    16    34 1   
    32    17    18 1   
    33    17    35 1   
    34    18    19 1   
    35    19    20 1   
    36    19    36 1   
    37    20    21 1   
    38    21    37 1   
    39    21    38 1   
    40    21    39 1   
@<TRIPOS>SUBSTRUCTURE
     1 6LA         1 TEMP              0 ****  ****    0 ROOT
