@<TRIPOS>MOLECULE
6LB
   21    21     1     0     0
SMALL
abcg2


@<TRIPOS>ATOM
      1 C8          -3.0050     0.3960    -0.2960 c3         1 6LB      -0.090100
      2 C7          -1.9570    -0.5420     0.2810 c3         1 6LB       0.168800
      3 N4          -0.6080    -0.2460    -0.1670 n3         1 6LB      -0.715600
      4 C3          -0.1160     1.0250     0.3310 c6         1 6LB       0.126300
      5 C2           1.2900     1.2810    -0.1770 c6         1 6LB       0.152600
      6 C5           0.3130    -1.3050     0.2050 c6         1 6LB       0.126300
      7 C6           1.7080    -0.9960    -0.3060 c6         1 6LB       0.152600
      8 O1           2.1750     0.2430     0.1800 os         1 6LB      -0.450000
      9 H1          -2.8860     1.4230     0.0500 hc         1 6LB       0.037367
     10 H2          -2.9650     0.3990    -1.3860 hc         1 6LB       0.037367
     11 H3          -4.0000     0.0690     0.0050 hc         1 6LB       0.037367
     12 H4          -2.0240    -0.5370     1.3820 h1         1 6LB       0.029200
     13 H5          -2.1900    -1.5620    -0.0350 h1         1 6LB       0.029200
     14 H7          -0.7540     1.8390    -0.0180 h1         1 6LB       0.039700
     15 H8          -0.1230     1.0590     1.4350 h1         1 6LB       0.039700
     16 H9           1.2630     1.4020    -1.2700 h1         1 6LB       0.049700
     17 H10          1.6800     2.2050     0.2520 h1         1 6LB       0.049700
     18 H11          0.3490    -1.4530     1.2990 h1         1 6LB       0.039700
     19 H12         -0.0220    -2.2480    -0.2350 h1         1 6LB       0.039700
     20 H13          2.4080    -1.7640     0.0270 h1         1 6LB       0.049700
     21 H14          1.7020    -0.9990    -1.4060 h1         1 6LB       0.049700
@<TRIPOS>BOND
     1     1     2 1   
     2     1     9 1   
     3     1    10 1   
     4     1    11 1   
     5     2     3 1   
     6     2    12 1   
     7     2    13 1   
     8     3     4 1   
     9     3     6 1   
    10     4     5 1   
    11     4    14 1   
    12     4    15 1   
    13     5     8 1   
    14     5    16 1   
    15     5    17 1   
    16     6     7 1   
    17     6    18 1   
    18     6    19 1   
    19     7     8 1   
    20     7    20 1   
    21     7    21 1   
@<TRIPOS>SUBSTRUCTURE
     1 6LB         1 TEMP              0 ****  ****    0 ROOT
