@<TRIPOS>MOLECULE
6LB
   21    21     1     0     0
SMALL
No Charge or Current Charge


@<TRIPOS>ATOM
      1 C8          -3.0850     0.4060    -0.2620 c3         1 6LB      -0.090100
      2 C7          -2.0130    -0.5650     0.2730 c3         1 6LB       0.168800
      3 N4          -0.6300    -0.2620    -0.1710 n3         1 6LB      -0.715600
      4 C3          -0.1150     1.0680     0.2940 c6         1 6LB       0.126300
      5 C2           1.3430     1.3300    -0.1920 c6         1 6LB       0.152600
      6 C5           0.3330    -1.3490     0.1950 c6         1 6LB       0.126300
      7 C6           1.7790    -1.0360    -0.2930 c6         1 6LB       0.152600
      8 O1           2.2130     0.2470     0.2160 os         1 6LB      -0.450000
      9 H1          -2.9610     1.4090     0.1610 hc         1 6LB       0.037367
     10 H2          -3.0330     0.4750    -1.3550 hc         1 6LB       0.037367
     11 H3          -4.0840     0.0480     0.0110 hc         1 6LB       0.037367
     12 H4          -2.0620    -0.5730     1.3700 h1         1 6LB       0.029200
     13 H5          -2.2860    -1.5730    -0.0670 h1         1 6LB       0.029200
     14 H7          -0.7500     1.8840    -0.0810 h1         1 6LB       0.039700
     15 H8          -0.1350     1.1220     1.3930 h1         1 6LB       0.039700
     16 H9           1.3630     1.4190    -1.2880 h1         1 6LB       0.049700
     17 H10          1.7160     2.2720     0.2340 h1         1 6LB       0.049700
     18 H11          0.3540    -1.4880     1.2870 h1         1 6LB       0.039700
     19 H12          0.0130    -2.3060    -0.2440 h1         1 6LB       0.039700
     20 H13          2.4700    -1.8160     0.0590 h1         1 6LB       0.049700
     21 H14          1.8100    -1.0210    -1.3920 h1         1 6LB       0.049700
@<TRIPOS>BOND
     1     1     2 1   
     2     1     9 1   
     3     1    10 1   
     4     1    11 1   
     5     2     3 1   
     6     2    12 1   
     7     2    13 1   
     8     3     4 1   
     9     3     6 1   
    10     4     5 1   
    11     4    14 1   
    12     4    15 1   
    13     5     8 1   
    14     5    16 1   
    15     5    17 1   
    16     6     7 1   
    17     6    18 1   
    18     6    19 1   
    19     7     8 1   
    20     7    20 1   
    21     7    21 1   
@<TRIPOS>SUBSTRUCTURE
     1 6LB         1 TEMP              0 ****  ****    0 ROOT
