@<TRIPOS>MOLECULE
6LD
   51    52     1     0     0
SMALL
abcg2


@<TRIPOS>ATOM
      1 C1          -2.9960     0.8420    -0.2230 cp         1 6LD      -0.063000
      2 C2          -4.4080     0.4850     0.0220 cp         1 6LD      -0.001000
      3 C3          -2.3210     1.7280     0.6180 ca         1 6LD      -0.091500
      4 C11         -0.2960     1.5240    -0.6910 ca         1 6LD      -0.043300
      5 C12         -7.0880    -0.1980     0.4870 ca         1 6LD      -0.127000
      6 C13          1.1540     1.8440    -0.8970 c3         1 6LD      -0.060100
      7 C14          2.0780     0.9200    -0.0830 c3         1 6LD       0.104700
      8 C16          3.5590     1.2020    -0.3430 c3         1 6LD      -0.062400
      9 C18          4.0100     2.6310    -0.0510 c3         1 6LD      -0.191700
     10 C19          0.6800    -2.6050    -0.2460 c3         1 6LD      -0.131400
     11 C21          5.5080     2.8590    -0.3790 c          1 6LD       0.719000
     12 C22          3.6980     3.0560     1.3820 c3         1 6LD      -0.062100
     13 C23          0.7130    -3.7680     0.7320 c3         1 6LD      -0.198400
     14 C26          0.2120    -5.1080     0.1630 c          1 6LD       0.717000
     15 C4          -2.2960     0.3080    -1.3050 ca         1 6LD      -0.091500
     16 C5          -5.2940     0.2920    -1.0410 ca         1 6LD      -0.101500
     17 C6          -4.8930     0.3300     1.3230 ca         1 6LD      -0.101500
     18 C7          -0.9960     2.0590     0.3870 ca         1 6LD      -0.105500
     19 C8          -0.9720     0.6450    -1.5340 ca         1 6LD      -0.105500
     20 C9          -6.6190    -0.0470    -0.8110 ca         1 6LD      -0.116500
     21 C10         -6.2190    -0.0060     1.5530 ca         1 6LD      -0.116500
     22 N15          1.7880    -0.4660    -0.3880 ns         1 6LD      -0.511900
     23 O20          0.6860    -0.9770     1.5170 o          1 6LD      -0.637100
     24 O24          5.9920     3.9530    -0.0200 o          1 6LD      -0.742000
     25 O25          6.1160     1.9580    -0.9920 o          1 6LD      -0.742000
     26 O27          0.3240    -6.0930     0.9230 o          1 6LD      -0.751000
     27 O28         -0.2660    -5.1120    -0.9880 o          1 6LD      -0.751000
     28 H1          -2.8410     2.1830     1.4530 ha         1 6LD       0.104000
     29 H2          -8.1230    -0.4600     0.6670 ha         1 6LD       0.096000
     30 H3           1.4170     1.7630    -1.9560 hc         1 6LD       0.049700
     31 H4           1.3460     2.8800    -0.6070 hc         1 6LD       0.049700
     32 H5           1.8550     1.0520     0.9760 h1         1 6LD       0.077700
     33 H6           4.1430     0.5050     0.2660 hc         1 6LD       0.051200
     34 H7           3.7800     0.9580    -1.3860 hc         1 6LD       0.051200
     35 H8           3.4630     3.3110    -0.7190 hc         1 6LD       0.018700
     36 H9          -0.3320    -2.4890    -0.6470 hc         1 6LD       0.052200
     37 H10          1.3190    -2.8110    -1.1070 hc         1 6LD       0.052200
     38 H11          4.1920     2.4010     2.1050 hc         1 6LD       0.013367
     39 H12          4.0410     4.0720     1.5660 hc         1 6LD       0.013367
     40 H13          2.6280     3.0300     1.5980 hc         1 6LD       0.013367
     41 H14          1.7310    -3.9120     1.1090 hc         1 6LD       0.032700
     42 H15          0.1120    -3.5250     1.6130 hc         1 6LD       0.032700
     43 H16         -2.7830    -0.3960    -1.9690 ha         1 6LD       0.104000
     44 H17         -4.9500     0.4260    -2.0590 ha         1 6LD       0.116500
     45 H18         -4.2240     0.4540     2.1650 ha         1 6LD       0.116500
     46 H19         -0.4990     2.7530     1.0560 ha         1 6LD       0.112500
     47 H20         -0.4540     0.2110    -2.3800 ha         1 6LD       0.112500
     48 H21         -7.2890    -0.1870    -1.6510 ha         1 6LD       0.100000
     49 H22         -6.5710    -0.1280     2.5690 ha         1 6LD       0.100000
     50 H23          2.0280    -0.7880    -1.3130 hn         1 6LD       0.300500
     51 C17          1.0490    -1.2820     0.3890 c          1 6LD       0.593100
@<TRIPOS>BOND
     1     1     2 1   
     2     1     3 ar  
     3     1    15 ar  
     4     2    16 ar  
     5     2    17 ar  
     6     3    18 ar  
     7     3    28 1   
     8     4     6 1   
     9     4    18 ar  
    10     4    19 ar  
    11     5    20 ar  
    12     5    21 ar  
    13     5    29 1   
    14     6     7 1   
    15     6    30 1   
    16     6    31 1   
    17     7     8 1   
    18     7    22 1   
    19     7    32 1   
    20     8     9 1   
    21     8    33 1   
    22     8    34 1   
    23     9    11 1   
    24     9    12 1   
    25     9    35 1   
    26    10    13 1   
    27    10    36 1   
    28    10    37 1   
    29    10    51 1   
    30    11    24 1   
    31    11    25 1   
    32    12    38 1   
    33    12    39 1   
    34    12    40 1   
    35    13    14 1   
    36    13    41 1   
    37    13    42 1   
    38    14    26 1   
    39    14    27 1   
    40    15    19 ar  
    41    15    43 1   
    42    16    20 ar  
    43    16    44 1   
    44    17    21 ar  
    45    17    45 1   
    46    18    46 1   
    47    19    47 1   
    48    20    48 1   
    49    21    49 1   
    50    22    50 1   
    51    22    51 1   
    52    23    51 2   
@<TRIPOS>SUBSTRUCTURE
     1 6LD         1 TEMP              0 ****  ****    0 ROOT
