@<TRIPOS>MOLECULE
6LD
   51    52     1     0     0
SMALL
No Charge or Current Charge


@<TRIPOS>ATOM
      1 C1          -3.3180     1.0320    -0.3830 cp         1 6LD      -0.063000
      2 C2          -4.7870     0.7870    -0.2100 cp         1 6LD      -0.001000
      3 C3          -2.5490     1.6340     0.6440 ca         1 6LD      -0.091500
      4 C11         -0.5240     1.4950    -0.7110 ca         1 6LD      -0.043300
      5 C12         -7.5720     0.3220     0.1190 ca         1 6LD      -0.127000
      6 C13          0.9730     1.7360    -0.8780 c3         1 6LD      -0.060100
      7 C14          1.8370     0.8510     0.0570 c3         1 6LD       0.104700
      8 C16          3.3670     0.9950    -0.1750 c3         1 6LD      -0.062400
      9 C18          3.9670     2.4200     0.0290 c3         1 6LD      -0.191700
     10 C19          0.9480    -2.8750     0.5600 c3         1 6LD      -0.131400
     11 C21          5.4730     2.4390    -0.3330 c          1 6LD       0.719000
     12 C22          3.7340     2.9790     1.4550 c3         1 6LD      -0.062100
     13 C23          2.1040    -3.9070     0.4240 c3         1 6LD      -0.198400
     14 C26          1.5520    -5.2880     0.0330 c          1 6LD       0.717000
     15 C4          -2.6500     0.6700    -1.5800 ca         1 6LD      -0.091500
     16 C5          -5.6820     0.8920    -1.3050 ca         1 6LD      -0.101500
     17 C6          -5.3280     0.4410     1.0550 ca         1 6LD      -0.101500
     18 C7          -1.1720     1.8630     0.4820 ca         1 6LD      -0.105500
     19 C8          -1.2730     0.8980    -1.7420 ca         1 6LD      -0.105500
     20 C9          -7.0600     0.6630    -1.1430 ca         1 6LD      -0.116500
     21 C10         -6.7060     0.2100     1.2180 ca         1 6LD      -0.116500
     22 N15          1.4400    -0.5540    -0.0730 ns         1 6LD      -0.511900
     23 O20          1.8300    -1.2030     2.0790 o          1 6LD      -0.637100
     24 O24          5.8320     3.1450    -1.2650 o          1 6LD      -0.742000
     25 O25          6.2450     1.7510     0.3190 o          1 6LD      -0.742000
     26 O27          1.4210    -5.5420    -1.1540 o          1 6LD      -0.751000
     27 O28          1.2170    -6.0500     0.9280 o          1 6LD      -0.751000
     28 H1          -3.0240     1.9400     1.5720 ha         1 6LD       0.104000
     29 H2          -8.6370     0.1440     0.2450 ha         1 6LD       0.096000
     30 H3           1.2750     1.5570    -1.9170 hc         1 6LD       0.049700
     31 H4           1.1860     2.7920    -0.6760 hc         1 6LD       0.049700
     32 H5           1.6190     1.1570     1.0890 h1         1 6LD       0.077700
     33 H6           3.8850     0.3010     0.4980 hc         1 6LD       0.051200
     34 H7           3.5980     0.6620    -1.1940 hc         1 6LD       0.051200
     35 H8           3.4630     3.0990    -0.6690 hc         1 6LD       0.018700
     36 H9           0.2620    -3.2240     1.3400 hc         1 6LD       0.052200
     37 H10          0.4190    -2.8240    -0.4000 hc         1 6LD       0.052200
     38 H11          4.1430     2.3010     2.2140 hc         1 6LD       0.013367
     39 H12          4.2230     3.9540     1.5670 hc         1 6LD       0.013367
     40 H13          2.6650     3.1180     1.6560 hc         1 6LD       0.013367
     41 H14          2.7580    -3.5200    -0.3670 hc         1 6LD       0.032700
     42 H15          2.5840    -3.9540     1.4090 hc         1 6LD       0.032700
     43 H16         -3.2000     0.1940    -2.3870 ha         1 6LD       0.104000
     44 H17         -5.3080     1.1680    -2.2870 ha         1 6LD       0.116500
     45 H18         -4.6730     0.3360     1.9160 ha         1 6LD       0.116500
     46 H19         -0.6080     2.3290     1.2860 ha         1 6LD       0.112500
     47 H20         -0.7880     0.6040    -2.6700 ha         1 6LD       0.112500
     48 H21         -7.7290     0.7530    -1.9950 ha         1 6LD       0.100000
     49 H22         -7.1000    -0.0570     2.1960 ha         1 6LD       0.100000
     50 H23          1.0990    -0.8750    -0.9700 hn         1 6LD       0.300500
     51 C17          1.4610    -1.4800     0.9460 c          1 6LD       0.593100
@<TRIPOS>BOND
     1     1     2 1   
     2     1     3 ar  
     3     1    15 ar  
     4     2    16 ar  
     5     2    17 ar  
     6     3    18 ar  
     7     3    28 1   
     8     4     6 1   
     9     4    18 ar  
    10     4    19 ar  
    11     5    20 ar  
    12     5    21 ar  
    13     5    29 1   
    14     6     7 1   
    15     6    30 1   
    16     6    31 1   
    17     7     8 1   
    18     7    22 1   
    19     7    32 1   
    20     8     9 1   
    21     8    33 1   
    22     8    34 1   
    23     9    11 1   
    24     9    12 1   
    25     9    35 1   
    26    10    13 1   
    27    10    36 1   
    28    10    37 1   
    29    10    51 1   
    30    11    24 1   
    31    11    25 1   
    32    12    38 1   
    33    12    39 1   
    34    12    40 1   
    35    13    14 1   
    36    13    41 1   
    37    13    42 1   
    38    14    26 1   
    39    14    27 1   
    40    15    19 ar  
    41    15    43 1   
    42    16    20 ar  
    43    16    44 1   
    44    17    21 ar  
    45    17    45 1   
    46    18    46 1   
    47    19    47 1   
    48    20    48 1   
    49    21    49 1   
    50    22    50 1   
    51    22    51 1   
    52    23    51 2   
@<TRIPOS>SUBSTRUCTURE
     1 6LD         1 TEMP              0 ****  ****    0 ROOT
