@<TRIPOS>MOLECULE
6LE
   21    21     1     0     0
SMALL
No Charge or Current Charge


@<TRIPOS>ATOM
      1 C4          -1.5550     1.0180    -0.7250 ca         1 6LE      -0.102000
      2 C5          -2.1040    -0.0420     0.0120 ca         1 6LE       0.121000
      3 C6          -1.2620    -0.9890     0.6140 ca         1 6LE      -0.102000
      4 C7           0.1340    -0.8770     0.4810 ca         1 6LE      -0.094000
      5 Cl          -3.8490    -0.1850     0.1800 cl         1 6LE      -0.204000
      6 C3          -0.1590     1.1320    -0.8600 ca         1 6LE      -0.094000
      7 C2           0.6980     0.1890    -0.2550 ca         1 6LE      -0.111300
      8 C1           2.2140     0.3310    -0.4170 c3         1 6LE       0.211600
      9 O            2.6880    -0.6630    -1.3410 oh         1 6LE      -0.645000
     10 C            2.9900     0.2240     0.9360 c3         1 6LE       0.116800
     11 N            4.4510     0.4620     0.8000 n8         1 6LE      -0.993200
     12 H1          -2.2090     1.7490    -1.1930 ha         1 6LE       0.129500
     13 H2          -1.6900    -1.8110     1.1830 ha         1 6LE       0.129500
     14 H3           0.7690    -1.6250     0.9510 ha         1 6LE       0.118000
     15 H4           0.2540     1.9570    -1.4370 ha         1 6LE       0.118000
     16 H5           2.4190     1.3330    -0.8190 h1         1 6LE       0.097700
     17 H6           2.2780    -1.5120    -1.0710 ho         1 6LE       0.435000
     18 H7           2.5820     0.9550     1.6470 h1         1 6LE       0.035700
     19 H8           2.8450    -0.7780     1.3620 h1         1 6LE       0.035700
     20 H9           4.9220     0.1950     1.6740 hn         1 6LE       0.399000
     21 H10          4.8230    -0.2030     0.1100 hn         1 6LE       0.399000
@<TRIPOS>BOND
     1     1     2 ar  
     2     1     6 ar  
     3     1    12 1   
     4     2     3 ar  
     5     2     5 1   
     6     3     4 ar  
     7     3    13 1   
     8     4     7 ar  
     9     4    14 1   
    10     6     7 ar  
    11     6    15 1   
    12     7     8 1   
    13     8     9 1   
    14     8    10 1   
    15     8    16 1   
    16     9    17 1   
    17    10    11 1   
    18    10    18 1   
    19    10    19 1   
    20    11    20 1   
    21    11    21 1   
@<TRIPOS>SUBSTRUCTURE
     1 6LE         1 TEMP              0 ****  ****    0 ROOT
