@<TRIPOS>MOLECULE
6LE
   21    21     1     0     0
SMALL
abcg2


@<TRIPOS>ATOM
      1 C4          -1.3670     1.2110    -0.2530 ca         1 6LE      -0.102000
      2 C5          -2.0520     0.0440     0.0530 ca         1 6LE       0.121000
      3 C6          -1.3850    -1.1630     0.1690 ca         1 6LE      -0.102000
      4 C7          -0.0100    -1.2010    -0.0240 ca         1 6LE      -0.094000
      5 CL          -3.7700     0.1000     0.2840 cl         1 6LE      -0.204000
      6 C3           0.0050     1.1530    -0.4370 ca         1 6LE      -0.094000
      7 C2           0.7040    -0.0460    -0.3230 ca         1 6LE      -0.111300
      8 C1           2.2080    -0.0460    -0.4940 c3         1 6LE       0.211600
      9 O            2.7230    -1.3080    -0.8500 oh         1 6LE      -0.645000
     10 C            2.8850     0.5010     0.7610 c3         1 6LE       0.116800
     11 N            4.3060     0.6990     0.5390 n8         1 6LE      -0.993200
     12 H1          -1.8930     2.1500    -0.3520 ha         1 6LE       0.129500
     13 H2          -1.9250    -2.0700     0.4040 ha         1 6LE       0.129500
     14 H3           0.4900    -2.1570     0.0610 ha         1 6LE       0.118000
     15 H4           0.5370     2.0650    -0.6830 ha         1 6LE       0.118000
     16 H5           2.4580     0.6220    -1.3250 h1         1 6LE       0.097700
     17 H6           2.7600    -1.8660    -0.0650 ho         1 6LE       0.435000
     18 H7           2.4340     1.4650     1.0070 h1         1 6LE       0.035700
     19 H8           2.6460    -0.1720     1.6010 h1         1 6LE       0.035700
     20 H9           4.7280     1.0710     1.3800 hn         1 6LE       0.399000
     21 H10          4.7550    -0.1930     0.3790 hn         1 6LE       0.399000
@<TRIPOS>BOND
     1     1     2 ar  
     2     1     6 ar  
     3     1    12 1   
     4     2     3 ar  
     5     2     5 1   
     6     3     4 ar  
     7     3    13 1   
     8     4     7 ar  
     9     4    14 1   
    10     6     7 ar  
    11     6    15 1   
    12     7     8 1   
    13     8     9 1   
    14     8    10 1   
    15     8    16 1   
    16     9    17 1   
    17    10    11 1   
    18    10    18 1   
    19    10    19 1   
    20    11    20 1   
    21    11    21 1   
@<TRIPOS>SUBSTRUCTURE
     1 6LE         1 TEMP              0 ****  ****    0 ROOT
