@<TRIPOS>MOLECULE
6LG
   57    60     1     0     0
SMALL
No Charge or Current Charge


@<TRIPOS>ATOM
      1 C10          0.6780    -1.1400     1.0290 ca         1 6LG       0.202100
      2 C13         -1.3960     0.8360    -1.5430 c3         1 6LG       0.272600
      3 C17         -5.8130     0.4970    -1.4740 cx         1 6LG       0.119050
      4 C20         -2.9380    -0.6410     1.7900 cx         1 6LG       0.119050
      5 C21         -4.3610    -0.2290     2.0300 cx         1 6LG       0.119050
      6 C24         -1.1490    -1.6590    -1.0440 ca         1 6LG      -0.115000
      7 C26          0.3130    -2.4700     0.7370 ca         1 6LG      -0.209200
      8 O01          6.1580     1.8650    -0.5930 o          1 6LG      -0.585100
      9 N03          4.3140     1.3240    -1.8510 n          1 6LG      -0.407800
     10 C04          5.0950     1.3510    -3.1080 c3         1 6LG       0.086800
     11 C05          2.8600     1.5740    -1.9930 c3         1 6LG       0.086800
     12 C06          4.2290     1.2800     0.6760 ca         1 6LG      -0.134600
     13 C07          3.2210     0.2930     0.7690 ca         1 6LG      -0.083000
     14 C08          2.5340     0.0810     1.9810 ca         1 6LG       0.071100
     15 O09          1.5350    -0.8620     2.0730 os         1 6LG      -0.214200
     16 C11          0.1200    -0.0790     0.2890 ca         1 6LG      -0.200000
     17 C12         -0.7900    -0.3290    -0.7560 ca         1 6LG      -0.063300
     18 O14         -2.8250     0.7920    -1.4580 os         1 6LG      -0.612400
     19 P15         -3.5550     1.2460    -0.0960 p5         1 6LG       1.231000
     20 N16         -5.1320     1.5300    -0.6550 np         1 6LG      -0.766700
     21 C18         -5.4150     1.8130    -2.0850 cx         1 6LG       0.119050
     22 N19         -3.8070    -0.2470     0.6550 np         1 6LG      -0.766700
     23 O22         -2.9320     2.3310     0.7050 o          1 6LG      -0.567000
     24 C23         -1.0380     0.7940    -3.0390 c3         1 6LG      -0.090100
     25 C25         -0.6090    -2.7230    -0.3030 ca         1 6LG      -0.025000
     26 N27          0.8800    -3.6080     1.5080 no         1 6LG       0.701200
     27 O28          2.0900    -3.5930     1.7690 o          1 6LG      -0.388500
     28 O29          0.1510    -4.5900     1.6960 o          1 6LG      -0.388500
     29 C30          2.8830     0.8160     3.1230 ca         1 6LG      -0.101000
     30 C31          3.9100     1.7720     3.0530 ca         1 6LG      -0.104000
     31 C32          4.5800     2.0010     1.8390 ca         1 6LG      -0.057000
     32 H131        -1.0160     1.7830    -1.1330 h1         1 6LG       0.064700
     33 H172        -5.2450    -0.3920    -1.7540 h1         1 6LG       0.085950
     34 H171        -6.8730     0.3230    -1.2860 h1         1 6LG       0.085950
     35 H202        -2.1430     0.0440     2.0880 h1         1 6LG       0.085950
     36 H201        -2.6910    -1.6980     1.8880 h1         1 6LG       0.085950
     37 H211        -5.0760    -1.0080     2.2940 h1         1 6LG       0.085950
     38 H212        -4.5470     0.7400     2.4960 h1         1 6LG       0.085950
     39 H241        -1.8670    -1.8690    -1.8350 ha         1 6LG       0.143000
     40 H041         4.4870     0.9720    -3.9390 h1         1 6LG       0.043033
     41 H043         5.4060     2.3800    -3.3300 h1         1 6LG       0.043033
     42 H042         5.9860     0.7180    -3.0090 h1         1 6LG       0.043033
     43 H053         2.4770     2.1450    -1.1380 h1         1 6LG       0.043033
     44 H051         2.6650     2.1540    -2.9050 h1         1 6LG       0.043033
     45 H052         2.3240     0.6200    -2.0650 h1         1 6LG       0.043033
     46 H071         2.9820    -0.3260    -0.0910 ha         1 6LG       0.140000
     47 H111         0.3850     0.9450     0.5390 ha         1 6LG       0.137000
     48 H182        -4.5870     1.8250    -2.7940 h1         1 6LG       0.085950
     49 H181        -6.2110     2.5240    -2.3080 h1         1 6LG       0.085950
     50 H231         0.0500     0.8010    -3.1710 hc         1 6LG       0.051367
     51 H232        -1.4370    -0.1080    -3.5160 hc         1 6LG       0.051367
     52 H233        -1.4500     1.6690    -3.5550 hc         1 6LG       0.051367
     53 H251        -0.9070    -3.7420    -0.5440 ha         1 6LG       0.153000
     54 H301         2.3620     0.6420     4.0610 ha         1 6LG       0.131000
     55 H311         4.1840     2.3400     3.9400 ha         1 6LG       0.128000
     56 H321         5.3680     2.7510     1.8000 ha         1 6LG       0.137000
     57 C02          4.9760     1.5430    -0.6170 c          1 6LG       0.615700
@<TRIPOS>BOND
     1     1     7 ar  
     2     1    15 1   
     3     1    16 ar  
     4     2    17 1   
     5     2    18 1   
     6     2    24 1   
     7     2    32 1   
     8     3    20 1   
     9     3    21 1   
    10     3    33 1   
    11     3    34 1   
    12     4     5 1   
    13     4    22 1   
    14     4    35 1   
    15     4    36 1   
    16     5    22 1   
    17     5    37 1   
    18     5    38 1   
    19     6    17 ar  
    20     6    25 ar  
    21     6    39 1   
    22     7    25 ar  
    23     7    26 1   
    24     8    57 2   
    25     9    10 1   
    26     9    11 1   
    27     9    57 1   
    28    10    40 1   
    29    10    41 1   
    30    10    42 1   
    31    11    43 1   
    32    11    44 1   
    33    11    45 1   
    34    12    13 ar  
    35    12    31 ar  
    36    12    57 1   
    37    13    14 ar  
    38    13    46 1   
    39    14    15 1   
    40    14    29 ar  
    41    16    17 ar  
    42    16    47 1   
    43    18    19 1   
    44    19    20 1   
    45    19    22 1   
    46    19    23 2   
    47    20    21 1   
    48    21    48 1   
    49    21    49 1   
    50    24    50 1   
    51    24    51 1   
    52    24    52 1   
    53    25    53 1   
    54    26    27 1   
    55    26    28 1   
    56    29    30 ar  
    57    29    54 1   
    58    30    31 ar  
    59    30    55 1   
    60    31    56 1   
@<TRIPOS>SUBSTRUCTURE
     1 6LG         1 TEMP              0 ****  ****    0 ROOT
