@<TRIPOS>MOLECULE
6LG
   57    60     1     0     0
SMALL
abcg2


@<TRIPOS>ATOM
      1 C10          0.7860    -1.6570     0.4470 ca         1 6LG       0.202100
      2 C13         -1.6350     0.3670    -1.6540 c3         1 6LG       0.272600
      3 C17         -6.0230     0.4960    -1.0780 cx         1 6LG       0.119050
      4 C20         -2.3770     0.0360     2.0370 cx         1 6LG       0.119050
      5 C21         -3.6660     0.5390     2.5430 cx         1 6LG       0.119050
      6 C24         -1.6920    -2.0120    -0.8170 ca         1 6LG      -0.115000
      7 C26          0.1190    -2.8870     0.4960 ca         1 6LG      -0.209200
      8 O01          6.1990     2.3010     0.3010 o          1 6LG      -0.585100
      9 N03          5.0500     1.8040    -1.5810 n          1 6LG      -0.407800
     10 C04          6.1890     2.0830    -2.4310 c3         1 6LG       0.086800
     11 C05          3.7900     1.6630    -2.2850 c3         1 6LG       0.086800
     12 C06          4.0350     1.4320     0.6020 ca         1 6LG      -0.134600
     13 C07          3.4720     0.1730     0.4130 ca         1 6LG      -0.083000
     14 C08          2.4740    -0.2540     1.2690 ca         1 6LG       0.071100
     15 O09          1.9520    -1.5180     1.1010 os         1 6LG      -0.214200
     16 C11          0.1820    -0.6150    -0.2520 ca         1 6LG      -0.200000
     17 C12         -1.0380    -0.7850    -0.8840 ca         1 6LG      -0.063300
     18 O14         -3.0310     0.4740    -1.3600 os         1 6LG      -0.612400
     19 P15         -3.5740     1.2620    -0.0630 p5         1 6LG       1.231000
     20 N16         -5.2030     1.4270    -0.3260 np         1 6LG      -0.766700
     21 C18         -5.7620     1.8550    -1.5960 cx         1 6LG       0.119050
     22 N19         -3.5340     0.1150     1.1550 np         1 6LG      -0.766700
     23 O22         -2.8690     2.5440     0.1930 o          1 6LG      -0.567000
     24 C23         -1.4890     0.1740    -3.1510 c3         1 6LG      -0.090100
     25 C25         -1.1150    -3.0520    -0.1220 ca         1 6LG      -0.025000
     26 N27          0.6840    -4.0250     1.1910 no         1 6LG       0.701200
     27 O28          1.8850    -4.1440     1.2190 o          1 6LG      -0.388500
     28 O29         -0.0880    -4.8110     1.6910 o          1 6LG      -0.388500
     29 C30          2.0170     0.5420     2.3070 ca         1 6LG      -0.101000
     30 C31          2.5890     1.7920     2.4910 ca         1 6LG      -0.104000
     31 C32          3.6020     2.2340     1.6530 ca         1 6LG      -0.057000
     32 H131        -1.1310     1.2940    -1.3600 h1         1 6LG       0.064700
     33 H172        -5.5400    -0.3380    -1.5730 h1         1 6LG       0.085950
     34 H171        -6.9800     0.2680    -0.6270 h1         1 6LG       0.085950
     35 H202        -1.5790     0.7580     1.9080 h1         1 6LG       0.085950
     36 H201        -2.0520    -0.9710     2.2710 h1         1 6LG       0.085950
     37 H211        -4.2960    -0.0970     3.1510 h1         1 6LG       0.085950
     38 H212        -3.7430     1.6000     2.7560 h1         1 6LG       0.085950
     39 H241        -2.6500    -2.1610    -1.2940 ha         1 6LG       0.143000
     40 H041         6.1500     1.4290    -3.3020 h1         1 6LG       0.043033
     41 H043         6.1830     3.1180    -2.7800 h1         1 6LG       0.043033
     42 H042         7.1190     1.8990    -1.9030 h1         1 6LG       0.043033
     43 H053         2.9420     1.7440    -1.6140 h1         1 6LG       0.043033
     44 H051         3.7010     2.4620    -3.0230 h1         1 6LG       0.043033
     45 H052         3.7340     0.7090    -2.8110 h1         1 6LG       0.043033
     46 H071         3.8140    -0.4760    -0.3840 ha         1 6LG       0.140000
     47 H111         0.6590     0.3570    -0.2860 ha         1 6LG       0.137000
     48 H182        -5.0970     1.9520    -2.4480 h1         1 6LG       0.085950
     49 H181        -6.5270     2.6170    -1.5270 h1         1 6LG       0.085950
     50 H231        -0.4340     0.0910    -3.4120 hc         1 6LG       0.051367
     51 H232        -1.9940    -0.7330    -3.4830 hc         1 6LG       0.051367
     52 H233        -1.9030     1.0260    -3.6890 hc         1 6LG       0.051367
     53 H251        -1.6170    -4.0080    -0.0700 ha         1 6LG       0.153000
     54 H301         1.2330     0.1880     2.9650 ha         1 6LG       0.131000
     55 H311         2.2430     2.4230     3.2990 ha         1 6LG       0.128000
     56 H321         4.0450     3.2070     1.8120 ha         1 6LG       0.137000
     57 C02          5.1810     1.8940    -0.2440 c          1 6LG       0.615700
@<TRIPOS>BOND
     1     1     7 ar  
     2     1    15 1   
     3     1    16 ar  
     4     2    17 1   
     5     2    18 1   
     6     2    24 1   
     7     2    32 1   
     8     3    20 1   
     9     3    21 1   
    10     3    33 1   
    11     3    34 1   
    12     4     5 1   
    13     4    22 1   
    14     4    35 1   
    15     4    36 1   
    16     5    22 1   
    17     5    37 1   
    18     5    38 1   
    19     6    17 ar  
    20     6    25 ar  
    21     6    39 1   
    22     7    25 ar  
    23     7    26 1   
    24     8    57 2   
    25     9    10 1   
    26     9    11 1   
    27     9    57 1   
    28    10    40 1   
    29    10    41 1   
    30    10    42 1   
    31    11    43 1   
    32    11    44 1   
    33    11    45 1   
    34    12    13 ar  
    35    12    31 ar  
    36    12    57 1   
    37    13    14 ar  
    38    13    46 1   
    39    14    15 1   
    40    14    29 ar  
    41    16    17 ar  
    42    16    47 1   
    43    18    19 1   
    44    19    20 1   
    45    19    22 1   
    46    19    23 2   
    47    20    21 1   
    48    21    48 1   
    49    21    49 1   
    50    24    50 1   
    51    24    51 1   
    52    24    52 1   
    53    25    53 1   
    54    26    27 1   
    55    26    28 1   
    56    29    30 ar  
    57    29    54 1   
    58    30    31 ar  
    59    30    55 1   
    60    31    56 1   
@<TRIPOS>SUBSTRUCTURE
     1 6LG         1 TEMP              0 ****  ****    0 ROOT
