@<TRIPOS>MOLECULE
6LH
   22    22     1     0     0
SMALL
No Charge or Current Charge


@<TRIPOS>ATOM
      1 S1           2.3230    -0.0390     0.0690 sy         1 6LH       1.141600
      2 N1          -4.4410    -0.1520    -0.9760 n8         1 6LH      -0.999200
      3 C11         -2.2950    -0.0030     0.2790 ca         1 6LH      -0.026300
      4 N2           2.5640    -0.1650    -1.5420 n8         1 6LH      -0.996100
      5 O5           2.8540    -1.2790     0.6370 o          1 6LH      -0.530000
      6 C12         -1.5890    -1.2220     0.2830 ca         1 6LH      -0.124500
      7 O6           2.8510     1.2810     0.4020 o          1 6LH      -0.530000
      8 C13         -0.1850    -1.2350     0.2200 ca         1 6LH      -0.016500
      9 C14          0.5300    -0.0210     0.1520 ca         1 6LH      -0.324500
     10 C15         -0.1720     1.2020     0.1460 ca         1 6LH      -0.016500
     11 C16         -1.5770     1.2070     0.2100 ca         1 6LH      -0.124500
     12 H1          -5.4590    -0.0500    -0.8820 hn         1 6LH       0.401000
     13 H2          -4.1710     0.6470    -1.5620 hn         1 6LH       0.401000
     14 H4          -4.1600     0.9520     0.7980 h1         1 6LH       0.043200
     15 H5          -4.1590    -0.8120     1.0060 h1         1 6LH       0.043200
     16 H6           3.1510     0.6490    -1.7120 hn         1 6LH       0.474000
     17 H7           1.6560     0.1090    -1.9100 hn         1 6LH       0.474000
     18 H8          -2.1330    -2.1630     0.3340 ha         1 6LH       0.127500
     19 H9           0.3400    -2.1900     0.2220 ha         1 6LH       0.135000
     20 H10          0.3610     2.1510     0.0950 ha         1 6LH       0.135000
     21 H11         -2.1090     2.1560     0.2060 ha         1 6LH       0.127500
     22 C10         -3.8180     0.0060     0.3550 c3         1 6LH       0.188100
@<TRIPOS>BOND
     1     1     4 1   
     2     1     5 2   
     3     1     7 2   
     4     1     9 1   
     5     2    12 1   
     6     2    13 1   
     7     2    22 1   
     8     3     6 ar  
     9     3    11 ar  
    10     3    22 1   
    11     4    16 1   
    12     4    17 1   
    13     6     8 ar  
    14     6    18 1   
    15     8     9 ar  
    16     8    19 1   
    17     9    10 ar  
    18    10    11 ar  
    19    10    20 1   
    20    11    21 1   
    21    14    22 1   
    22    15    22 1   
@<TRIPOS>SUBSTRUCTURE
     1 6LH         1 TEMP              0 ****  ****    0 ROOT
