@<TRIPOS>MOLECULE
6LH
   22    22     1     0     0
SMALL
bcc


@<TRIPOS>ATOM
      1 S1           2.2560    -0.1750     0.1120 sy         1 6LH       1.283200
      2 N1          -4.4780    -0.7160    -0.4440 n8         1 6LH      -0.888800
      3 C11         -2.2800     0.2180     0.1560 ca         1 6LH      -0.026300
      4 N2           2.7620     0.1610    -1.4160 n8         1 6LH      -0.885700
      5 O5           2.5880    -1.5700     0.3530 o          1 6LH      -0.600800
      6 C12         -1.6760    -0.9970    -0.1530 ca         1 6LH      -0.142500
      7 O6           2.8130     0.8620     0.9640 o          1 6LH      -0.600800
      8 C13         -0.2960    -1.1240    -0.1610 ca         1 6LH      -0.034500
      9 C14          0.4920    -0.0240     0.1450 ca         1 6LH      -0.324500
     10 C15         -0.0880     1.2010     0.4570 ca         1 6LH      -0.034500
     11 C16         -1.4670     1.3110     0.4550 ca         1 6LH      -0.142500
     12 H1          -5.4670    -0.6400    -0.2470 hn         1 6LH       0.345800
     13 H2          -4.3850    -0.6350    -1.4490 hn         1 6LH       0.345800
     14 H4          -4.0300     1.3680    -0.1950 h1         1 6LH       0.043200
     15 H5          -4.0780     0.3960     1.2540 h1         1 6LH       0.043200
     16 H6           2.5930     1.1190    -1.7000 hn         1 6LH       0.418800
     17 H7           2.4180    -0.4920    -2.1120 hn         1 6LH       0.418800
     18 H8          -2.2910    -1.8550    -0.3880 ha         1 6LH       0.145500
     19 H9           0.1510    -2.0800    -0.4000 ha         1 6LH       0.153000
     20 H10          0.5200     2.0610     0.7010 ha         1 6LH       0.153000
     21 H11         -1.9190     2.2660     0.6960 ha         1 6LH       0.145500
     22 C10         -3.7780     0.3750     0.2020 c3         1 6LH       0.188100
@<TRIPOS>BOND
     1     1     4 1   
     2     1     5 2   
     3     1     7 2   
     4     1     9 1   
     5     2    12 1   
     6     2    13 1   
     7     2    22 1   
     8     3     6 ar  
     9     3    11 ar  
    10     3    22 1   
    11     4    16 1   
    12     4    17 1   
    13     6     8 ar  
    14     6    18 1   
    15     8     9 ar  
    16     8    19 1   
    17     9    10 ar  
    18    10    11 ar  
    19    10    20 1   
    20    11    21 1   
    21    14    22 1   
    22    15    22 1   
@<TRIPOS>SUBSTRUCTURE
     1 6LH         1 TEMP              0 ****  ****    0 ROOT
