@<TRIPOS>MOLECULE
6LJ
   54    57     1     0     0
SMALL
abcg2


@<TRIPOS>ATOM
      1 C24         -8.3450     0.3800    -0.0680 c6         1 6LJ      -0.075400
      2 C23         -7.4550    -0.8270    -0.3340 c6         1 6LJ      -0.075400
      3 C22         -6.0510    -0.3920    -0.7270 c6         1 6LJ       0.166300
      4 C12          3.2870     1.6730    -0.0920 cp         1 6LJ      -0.102500
      5 C5           1.3820    -2.0930    -0.1820 ca         1 6LJ      -0.131000
      6 C2           2.6000     0.3630    -0.1240 cp         1 6LJ       0.453500
      7 C1           1.2000     0.3140    -0.1040 ca         1 6LJ      -0.281000
      8 C4           2.7860    -1.9070    -0.1870 ca         1 6LJ       0.311000
      9 C6           0.5550    -0.9160    -0.1290 ca         1 6LJ       0.393000
     10 C7           3.6240    -3.0450    -0.2270 ca         1 6LJ      -0.087000
     11 C8           3.0960    -4.3070    -0.2650 ca         1 6LJ      -0.095000
     12 C25         -7.6740     1.3000     0.9430 c6         1 6LJ      -0.075400
     13 C26         -6.2620     1.6520     0.5020 c6         1 6LJ       0.166300
     14 C9           1.7020    -4.4900    -0.2690 ca         1 6LJ      -0.119000
     15 C10          0.8660    -3.4040    -0.2280 ca         1 6LJ      -0.090000
     16 C13         -1.6790     0.1170    -0.0370 c3         1 6LJ       0.225800
     17 C14         -3.1220    -0.3560     0.0150 c3         1 6LJ      -0.097400
     18 C17          4.4900     1.8500     0.6090 ca         1 6LJ       0.023000
     19 C18          5.1390     3.0850     0.6130 ca         1 6LJ      -0.085000
     20 C19          4.6040     4.1530    -0.0860 ca         1 6LJ      -0.108000
     21 C20          3.4150     3.9900    -0.7820 ca         1 6LJ      -0.098000
     22 C21          2.7660     2.7640    -0.7790 ca         1 6LJ      -0.102000
     23 N28          5.6250     0.0700     2.0910 n1         1 6LJ      -0.459000
     24 N11         -0.7840    -1.0150    -0.1020 nu         1 6LJ      -0.969200
     25 N16         -5.4550     0.4610     0.2890 n3         1 6LJ      -0.717600
     26 N3           3.3780    -0.6910    -0.1630 nb         1 6LJ      -0.697000
     27 H1          -8.5110     0.9230    -1.0040 hc         1 6LJ       0.039700
     28 H2          -9.3280     0.0650     0.2890 hc         1 6LJ       0.039700
     29 H3          -7.3990    -1.4490     0.5650 hc         1 6LJ       0.047200
     30 H4          -7.8740    -1.4500    -1.1270 hc         1 6LJ       0.047200
     31 H5          -5.4290    -1.2770    -0.8690 h1         1 6LJ       0.029200
     32 H6          -6.0900     0.1270    -1.7040 h1         1 6LJ       0.029200
     33 H7           0.6300     1.2300    -0.0370 ha         1 6LJ       0.123000
     34 H8           4.6950    -2.8870    -0.2270 ha         1 6LJ       0.136000
     35 H9           3.7520    -5.1670    -0.2960 ha         1 6LJ       0.117000
     36 H10         -8.2490     2.2190     1.0770 hc         1 6LJ       0.047200
     37 H11         -7.6290     0.8050     1.9180 hc         1 6LJ       0.047200
     38 H12         -6.3100     2.2700    -0.4140 h1         1 6LJ       0.029200
     39 H13         -5.7790     2.2660     1.2660 h1         1 6LJ       0.029200
     40 H14          1.2880    -5.4890    -0.3060 ha         1 6LJ       0.113000
     41 H15         -0.2020    -3.5810    -0.2400 ha         1 6LJ       0.100000
     42 H16         -1.5260     0.7620    -0.9100 h1         1 6LJ       0.043700
     43 H17         -1.4590     0.7280     0.8460 h1         1 6LJ       0.043700
     44 H18         -3.3000    -1.0370    -0.8210 hc         1 6LJ       0.054700
     45 H19         -3.2860    -0.9250     0.9350 hc         1 6LJ       0.054700
     46 H20         -3.7630     1.5600     0.7140 h1         1 6LJ       0.031200
     47 H21         -4.0130     1.3200    -1.0080 h1         1 6LJ       0.031200
     48 H22          6.0590     3.2040     1.1690 ha         1 6LJ       0.126000
     49 H23          5.1120     5.1080    -0.0810 ha         1 6LJ       0.119000
     50 H24          2.9920     4.8170    -1.3360 ha         1 6LJ       0.116000
     51 H25          1.8490     2.6490    -1.3430 ha         1 6LJ       0.119000
     52 H26         -1.2030    -1.9260    -0.0300 hn         1 6LJ       0.494000
     53 C15         -4.0870     0.8210    -0.0250 c3         1 6LJ       0.173800
     54 C27          5.0800     0.8110     1.3970 cg         1 6LJ       0.344000
@<TRIPOS>BOND
     1     1     2 1   
     2     1    12 1   
     3     1    27 1   
     4     1    28 1   
     5     2     3 1   
     6     2    29 1   
     7     2    30 1   
     8     3    25 1   
     9     3    31 1   
    10     3    32 1   
    11     4     6 1   
    12     4    18 ar  
    13     4    22 ar  
    14     5     8 ar  
    15     5     9 ar  
    16     5    15 ar  
    17     6     7 ar  
    18     6    26 ar  
    19     7     9 ar  
    20     7    33 1   
    21     8    10 ar  
    22     8    26 ar  
    23     9    24 1   
    24    10    11 ar  
    25    10    34 1   
    26    11    14 ar  
    27    11    35 1   
    28    12    13 1   
    29    12    36 1   
    30    12    37 1   
    31    13    25 1   
    32    13    38 1   
    33    13    39 1   
    34    14    15 ar  
    35    14    40 1   
    36    15    41 1   
    37    16    17 1   
    38    16    24 1   
    39    16    42 1   
    40    16    43 1   
    41    17    44 1   
    42    17    45 1   
    43    17    53 1   
    44    18    19 ar  
    45    18    54 1   
    46    19    20 ar  
    47    19    48 1   
    48    20    21 ar  
    49    20    49 1   
    50    21    22 ar  
    51    21    50 1   
    52    22    51 1   
    53    23    54 3   
    54    24    52 1   
    55    25    53 1   
    56    46    53 1   
    57    47    53 1   
@<TRIPOS>SUBSTRUCTURE
     1 6LJ         1 TEMP              0 ****  ****    0 ROOT
