@<TRIPOS>MOLECULE
6LJ
   54    57     1     0     0
SMALL
No Charge or Current Charge


@<TRIPOS>ATOM
      1 C24         -8.4750     0.3490    -0.1470 c6         1 6LJ      -0.075400
      2 C23         -7.5460    -0.8230    -0.5310 c6         1 6LJ      -0.075400
      3 C22         -6.1030    -0.3290    -0.8060 c6         1 6LJ       0.166300
      4 C12          3.4590     1.6740    -0.1380 cp         1 6LJ      -0.102500
      5 C5           1.4360    -2.0910    -0.1730 ca         1 6LJ      -0.131000
      6 C2           2.7250     0.3640    -0.1240 cp         1 6LJ       0.453500
      7 C1           1.3230     0.3200    -0.0980 ca         1 6LJ      -0.281000
      8 C4           2.8460    -1.9660    -0.2100 ca         1 6LJ       0.311000
      9 C6           0.6640    -0.9100    -0.1180 ca         1 6LJ       0.393000
     10 C7           3.6350    -3.1300    -0.2680 ca         1 6LJ      -0.087000
     11 C8           3.0470    -4.4050    -0.2900 ca         1 6LJ      -0.095000
     12 C25         -7.8650     1.1430     1.0290 c6         1 6LJ      -0.075400
     13 C26         -6.4170     1.5860     0.7070 c6         1 6LJ       0.166300
     14 C9           1.6520    -4.5280    -0.2530 ca         1 6LJ      -0.119000
     15 C10          0.8460    -3.3800    -0.1950 ca         1 6LJ      -0.090000
     16 C13         -1.6660     0.1840     0.0370 c3         1 6LJ       0.225800
     17 C14         -3.1210    -0.3140     0.0480 c3         1 6LJ      -0.097400
     18 C17          4.5740     1.9560     0.7140 ca         1 6LJ       0.023000
     19 C18          5.2160     3.2100     0.6420 ca         1 6LJ      -0.085000
     20 C19          4.7720     4.1940    -0.2550 ca         1 6LJ      -0.108000
     21 C20          3.6750     3.9370    -1.0870 ca         1 6LJ      -0.098000
     22 C21          3.0260     2.6940    -1.0260 ca         1 6LJ      -0.102000
     23 N28          5.4620     0.2760     2.5040 n1         1 6LJ      -0.459000
     24 N11         -0.7350    -0.9490    -0.0840 nu         1 6LJ      -0.969200
     25 N16         -5.5460     0.4290     0.3550 n3         1 6LJ      -0.717600
     26 N3           3.4570    -0.7640    -0.1910 nb         1 6LJ      -0.697000
     27 H1          -8.6120     1.0140    -1.0120 hc         1 6LJ       0.039700
     28 H2          -9.4710    -0.0280     0.1240 hc         1 6LJ       0.039700
     29 H3          -7.5290    -1.5650     0.2790 hc         1 6LJ       0.047200
     30 H4          -7.9370    -1.3380    -1.4190 hc         1 6LJ       0.047200
     31 H5          -5.4860    -1.2090    -1.0320 h1         1 6LJ       0.029200
     32 H6          -6.1060     0.3050    -1.7050 h1         1 6LJ       0.029200
     33 H7           0.7680     1.2490    -0.0540 ha         1 6LJ       0.123000
     34 H8           4.7170    -3.0380    -0.2960 ha         1 6LJ       0.136000
     35 H9           3.6730    -5.2930    -0.3350 ha         1 6LJ       0.117000
     36 H10         -8.4830     2.0230     1.2500 hc         1 6LJ       0.047200
     37 H11         -7.8650     0.5230     1.9360 hc         1 6LJ       0.047200
     38 H12         -6.4400     2.3090    -0.1220 h1         1 6LJ       0.029200
     39 H13         -6.0120     2.1140     1.5830 h1         1 6LJ       0.029200
     40 H14          1.1930    -5.5150    -0.2700 ha         1 6LJ       0.113000
     41 H15         -0.2320    -3.5110    -0.1680 ha         1 6LJ       0.100000
     42 H16         -1.5280     0.8750    -0.8070 h1         1 6LJ       0.043700
     43 H17         -1.4660     0.7360     0.9650 h1         1 6LJ       0.043700
     44 H18         -3.3090    -0.8740    -0.8760 hc         1 6LJ       0.054700
     45 H19         -3.2630    -1.0030     0.8890 hc         1 6LJ       0.054700
     46 H20         -3.8280     1.4560     1.0330 h1         1 6LJ       0.031200
     47 H21         -4.0450     1.4870    -0.7180 h1         1 6LJ       0.031200
     48 H22          6.0620     3.4280     1.2920 ha         1 6LJ       0.126000
     49 H23          5.2760     5.1580    -0.3000 ha         1 6LJ       0.119000
     50 H24          3.3270     4.6990    -1.7810 ha         1 6LJ       0.116000
     51 H25          2.1810     2.5110    -1.6870 ha         1 6LJ       0.119000
     52 H26         -1.1470    -1.8810    -0.1040 hn         1 6LJ       0.494000
     53 C15         -4.1330     0.8470     0.1710 c3         1 6LJ       0.173800
     54 C27          5.0600     1.0180     1.6960 cg         1 6LJ       0.344000
@<TRIPOS>BOND
     1     1     2 1   
     2     1    12 1   
     3     1    27 1   
     4     1    28 1   
     5     2     3 1   
     6     2    29 1   
     7     2    30 1   
     8     3    25 1   
     9     3    31 1   
    10     3    32 1   
    11     4     6 1   
    12     4    18 ar  
    13     4    22 ar  
    14     5     8 ar  
    15     5     9 ar  
    16     5    15 ar  
    17     6     7 ar  
    18     6    26 ar  
    19     7     9 ar  
    20     7    33 1   
    21     8    10 ar  
    22     8    26 ar  
    23     9    24 1   
    24    10    11 ar  
    25    10    34 1   
    26    11    14 ar  
    27    11    35 1   
    28    12    13 1   
    29    12    36 1   
    30    12    37 1   
    31    13    25 1   
    32    13    38 1   
    33    13    39 1   
    34    14    15 ar  
    35    14    40 1   
    36    15    41 1   
    37    16    17 1   
    38    16    24 1   
    39    16    42 1   
    40    16    43 1   
    41    17    44 1   
    42    17    45 1   
    43    17    53 1   
    44    18    19 ar  
    45    18    54 1   
    46    19    20 ar  
    47    19    48 1   
    48    20    21 ar  
    49    20    49 1   
    50    21    22 ar  
    51    21    50 1   
    52    22    51 1   
    53    23    54 3   
    54    24    52 1   
    55    25    53 1   
    56    46    53 1   
    57    47    53 1   
@<TRIPOS>SUBSTRUCTURE
     1 6LJ         1 TEMP              0 ****  ****    0 ROOT
