@<TRIPOS>MOLECULE
6LK
   41    43     1     0     0
SMALL
abcg2


@<TRIPOS>ATOM
      1 C5          -2.8990     0.9550     1.0170 ca         1 6LK       0.378900
      2 C6          -2.7720    -0.2110     0.2880 ca         1 6LK      -0.065200
      3 C7          -3.8510    -0.6290    -0.4910 ca         1 6LK      -0.030000
      4 C8          -4.9870     0.1400    -0.5040 ca         1 6LK       0.040000
      5 C13         -0.1640    -4.2460     0.4480 c3         1 6LK      -0.108400
      6 C15          1.8640    -1.6350     0.2340 ca         1 6LK       0.037000
      7 C17          1.6400     0.7740     0.0530 ca         1 6LK      -0.042000
      8 C20          3.9300    -0.3330     0.0620 c          1 6LK       0.654700
      9 C26          6.8240     0.0690    -1.5750 c3         1 6LK      -0.362100
     10 C1          -6.1660     3.2590     0.9610 c3         1 6LK       0.156900
     11 C3          -5.0170     1.3290     0.2480 ca         1 6LK       0.600300
     12 N4          -3.9950     1.7060     0.9770 nb         1 6LK      -0.745000
     13 CL9         -6.3580    -0.3180    -1.4370 cl         1 6LK      -0.153000
     14 N10         -1.5960    -0.9740     0.3260 na         1 6LK       0.176800
     15 N11         -1.6750    -2.3210     0.3990 nc         1 6LK      -0.508100
     16 C12         -0.4600    -2.7920     0.3830 cd         1 6LK       0.384900
     17 C14          0.4780    -1.7170     0.2930 ca         1 6LK      -0.248900
     18 C16          2.4480    -0.3850     0.1080 ca         1 6LK      -0.206600
     19 C18          0.2680     0.7140     0.1220 ca         1 6LK      -0.137000
     20 C19         -0.3070    -0.5540     0.2500 ca         1 6LK       0.001800
     21 O21          4.6300    -1.2640     0.4010 o          1 6LK      -0.564100
     22 N22          4.4810     0.8370    -0.4050 ns         1 6LK      -0.586300
     23 S23          6.1300     1.1680    -0.3740 s6         1 6LK       1.219800
     24 O24          6.6480     0.8410     0.9380 o          1 6LK      -0.522000
     25 O25          6.2200     2.5330    -0.8610 o          1 6LK      -0.522000
     26 H1          -2.1010     1.3000     1.6630 h4         1 6LK       0.035100
     27 H2          -3.7950    -1.5390    -1.0730 ha         1 6LK       0.156000
     28 H3           0.2880    -4.5920    -0.4820 hc         1 6LK       0.057033
     29 H4           0.5400    -4.4650     1.2510 hc         1 6LK       0.057033
     30 H5          -1.0720    -4.8210     0.6200 hc         1 6LK       0.057033
     31 H6           2.4750    -2.5270     0.2740 ha         1 6LK       0.143000
     32 H7           2.0870     1.7560    -0.0250 ha         1 6LK       0.116000
     33 H8           6.3820     0.2830    -2.5440 h1         1 6LK       0.109700
     34 H9           7.8960     0.2610    -1.6000 h1         1 6LK       0.109700
     35 H10          6.6360    -0.9600    -1.2810 h1         1 6LK       0.109700
     36 H11         -5.3930     3.9610     0.6480 h1         1 6LK       0.052367
     37 H12         -7.1450     3.6900     0.7720 h1         1 6LK       0.052367
     38 H13         -6.0550     3.0610     2.0270 h1         1 6LK       0.052367
     39 H14         -0.3230     1.6170     0.0810 ha         1 6LK       0.132000
     40 H15          3.9170     1.5490    -0.8500 hn         1 6LK       0.347500
     41 O2          -6.1220     2.0570     0.1980 os         1 6LK      -0.438300
@<TRIPOS>BOND
     1     1     2 ar  
     2     1    12 ar  
     3     1    26 1   
     4     2     3 ar  
     5     2    14 1   
     6     3     4 ar  
     7     3    27 1   
     8     4    11 ar  
     9     4    13 1   
    10     5    16 1   
    11     5    28 1   
    12     5    29 1   
    13     5    30 1   
    14     6    17 ar  
    15     6    18 ar  
    16     6    31 1   
    17     7    18 ar  
    18     7    19 ar  
    19     7    32 1   
    20     8    18 1   
    21     8    21 2   
    22     8    22 1   
    23     9    23 1   
    24     9    33 1   
    25     9    34 1   
    26     9    35 1   
    27    10    36 1   
    28    10    37 1   
    29    10    38 1   
    30    10    41 1   
    31    11    12 ar  
    32    11    41 1   
    33    14    15 1   
    34    14    20 1   
    35    15    16 2   
    36    16    17 1   
    37    17    20 ar  
    38    19    20 ar  
    39    19    39 1   
    40    22    23 1   
    41    22    40 1   
    42    23    24 2   
    43    23    25 2   
@<TRIPOS>SUBSTRUCTURE
     1 6LK         1 TEMP              0 ****  ****    0 ROOT
