@<TRIPOS>MOLECULE
6LK
   41    43     1     0     0
SMALL
No Charge or Current Charge


@<TRIPOS>ATOM
      1 C5          -2.9080     0.8250     1.0790 ca         1 6LK       0.378900
      2 C6          -2.7640    -0.2730     0.2100 ca         1 6LK      -0.065200
      3 C7          -3.7840    -0.5350    -0.7230 ca         1 6LK      -0.030000
      4 C8          -4.9010     0.3150    -0.7490 ca         1 6LK       0.040000
      5 C13         -0.1740    -4.3170     0.8520 c3         1 6LK      -0.108400
      6 C15          1.8390    -1.7640     0.3090 ca         1 6LK       0.037000
      7 C17          1.6630     0.6400    -0.1580 ca         1 6LK      -0.042000
      8 C20          3.9820    -0.4750    -0.0090 c          1 6LK       0.654700
      9 C26          6.7370     0.4560    -1.8130 c3         1 6LK      -0.362100
     10 C1          -6.1920     3.3500     1.0190 c3         1 6LK       0.156900
     11 C3          -4.9620     1.4000     0.1600 ca         1 6LK       0.600300
     12 N4          -3.9810     1.6520     1.0620 nb         1 6LK      -0.745000
     13 Cl9         -6.1950     0.0080    -1.9130 cl         1 6LK      -0.153000
     14 N10         -1.6360    -1.0820     0.2810 na         1 6LK       0.176800
     15 N11         -1.7680    -2.4440     0.5450 nc         1 6LK      -0.508100
     16 C12         -0.4970    -2.8740     0.5880 cd         1 6LK       0.384900
     17 C14          0.4400    -1.7940     0.3590 ca         1 6LK      -0.248900
     18 C16          2.4720    -0.5200     0.0470 ca         1 6LK      -0.206600
     19 C18          0.2550     0.5610    -0.0990 ca         1 6LK      -0.137000
     20 C19         -0.3180    -0.6870     0.1700 ca         1 6LK       0.001800
     21 O21          4.6590    -1.4800     0.1420 o          1 6LK      -0.564100
     22 N22          4.5420     0.7380    -0.2560 ns         1 6LK      -0.586300
     23 S23          6.1610     1.1390    -0.2690 s6         1 6LK       1.219800
     24 O24          6.8320     0.4320     0.8270 o          1 6LK      -0.522000
     25 O25          6.2380     2.6000    -0.3590 o          1 6LK      -0.522000
     26 H1          -2.1390     1.0520     1.8170 h4         1 6LK       0.035100
     27 H2          -3.7120    -1.3750    -1.4090 ha         1 6LK       0.156000
     28 H3           0.3970    -4.7430     0.0200 hc         1 6LK       0.057033
     29 H4           0.4290    -4.4170     1.7620 hc         1 6LK       0.057033
     30 H5          -1.0820    -4.9160     0.9810 hc         1 6LK       0.057033
     31 H6           2.4160    -2.6750     0.4660 ha         1 6LK       0.143000
     32 H7           2.1080     1.6100    -0.3660 ha         1 6LK       0.116000
     33 H8           6.1520     0.9160    -2.6160 h1         1 6LK       0.109700
     34 H9           7.8000     0.7020    -1.9020 h1         1 6LK       0.109700
     35 H10          6.5810    -0.6270    -1.7730 h1         1 6LK       0.109700
     36 H11         -5.3680     4.0610     0.8770 h1         1 6LK       0.052367
     37 H12         -7.1340     3.8820     0.8330 h1         1 6LK       0.052367
     38 H13         -6.1910     3.0190     2.0650 h1         1 6LK       0.052367
     39 H14         -0.3600     1.4430    -0.2630 ha         1 6LK       0.132000
     40 H15          3.9580     1.5450    -0.3750 hn         1 6LK       0.347500
     41 O2          -6.0650     2.2290     0.1220 os         1 6LK      -0.438300
@<TRIPOS>BOND
     1     1     2 ar  
     2     1    12 ar  
     3     1    26 1   
     4     2     3 ar  
     5     2    14 1   
     6     3     4 ar  
     7     3    27 1   
     8     4    11 ar  
     9     4    13 1   
    10     5    16 1   
    11     5    28 1   
    12     5    29 1   
    13     5    30 1   
    14     6    17 ar  
    15     6    18 ar  
    16     6    31 1   
    17     7    18 ar  
    18     7    19 ar  
    19     7    32 1   
    20     8    18 1   
    21     8    21 2   
    22     8    22 1   
    23     9    23 1   
    24     9    33 1   
    25     9    34 1   
    26     9    35 1   
    27    10    36 1   
    28    10    37 1   
    29    10    38 1   
    30    10    41 1   
    31    11    12 ar  
    32    11    41 1   
    33    14    15 1   
    34    14    20 1   
    35    15    16 2   
    36    16    17 1   
    37    17    20 ar  
    38    19    20 ar  
    39    19    39 1   
    40    22    23 1   
    41    22    40 1   
    42    23    24 2   
    43    23    25 2   
@<TRIPOS>SUBSTRUCTURE
     1 6LK         1 TEMP              0 ****  ****    0 ROOT
