@<TRIPOS>MOLECULE
6LM
   41    42     1     0     0
SMALL
abcg2


@<TRIPOS>ATOM
      1 C10         -1.9150    -0.7370     1.0540 c5         1 6LM      -0.057000
      2 C15         -2.3460     0.9810    -0.4860 c5         1 6LM       0.161000
      3 C17         -3.3300    -0.1990     1.2750 c5         1 6LM       0.159600
      4 C01          3.1630     1.8330    -0.8490 c3         1 6LM      -0.071100
      5 C02          2.6020     0.5220    -0.2970 c3         1 6LM      -0.024500
      6 C03          3.5460    -0.1000     0.7330 c3         1 6LM      -0.201400
      7 C04          4.9200    -0.5410     0.1920 c          1 6LM       0.717000
      8 O05          5.8670    -0.5220     1.0050 o          1 6LM      -0.737000
      9 O06          4.9730    -0.9200    -0.9950 o          1 6LM      -0.737000
     10 C07          1.2630     0.7710     0.3300 c2         1 6LM      -0.143200
     11 C09         -1.2330     0.5360     0.5000 c5         1 6LM       0.216200
     12 C11         -1.9520    -1.8200    -0.0320 c6         1 6LM      -0.181400
     13 C12         -2.5530    -1.3810    -1.3470 c          1 6LM       0.590100
     14 O13         -3.1050    -2.1670    -2.0840 o          1 6LM      -0.539100
     15 C14         -2.3930     0.0740    -1.7160 c6         1 6LM      -0.196400
     16 O16         -3.5490     0.7630     0.2510 os         1 6LM      -0.464000
     17 C18         -2.2610     2.4370    -0.9000 c3         1 6LM      -0.085100
     18 C19         -1.2790    -1.2990     2.3120 c3         1 6LM      -0.070100
     19 O20         -1.1540     1.4400     1.5730 oh         1 6LM      -0.712000
     20 H1          -4.0810    -0.9930     1.2050 h1         1 6LM       0.045200
     21 H2          -3.4330     0.2670     2.2600 h1         1 6LM       0.045200
     22 H5           2.5020     2.2580    -1.6050 hc         1 6LM       0.026700
     23 H6           2.4830    -0.1840    -1.1240 hc         1 6LM       0.067700
     24 H7           3.6830     0.5920     1.5690 hc         1 6LM       0.020700
     25 H8           3.0650    -0.9890     1.1600 hc         1 6LM       0.020700
     26 H10          1.2830     1.3870     1.2260 ha         1 6LM       0.160000
     27 H12         -0.9360    -2.1740    -0.2440 hc         1 6LM       0.076200
     28 H13         -2.5020    -2.6920     0.3310 hc         1 6LM       0.076200
     29 H14         -3.2200     0.3700    -2.3660 hc         1 6LM       0.076700
     30 H15         -1.4850     0.1720    -2.3210 hc         1 6LM       0.076700
     31 H16         -1.2960     2.6450    -1.3650 hc         1 6LM       0.044700
     32 H17         -3.0360     2.6790    -1.6280 hc         1 6LM       0.044700
     33 H18         -2.3860     3.1080    -0.0510 hc         1 6LM       0.044700
     34 H19         -1.8210    -2.1870     2.6440 hc         1 6LM       0.043367
     35 H20         -0.2450    -1.5950     2.1270 hc         1 6LM       0.043367
     36 H21         -1.2840    -0.5800     3.1300 hc         1 6LM       0.043367
     37 H22         -0.7390     2.2550     1.2670 ho         1 6LM       0.509000
     38 C08          0.1080     0.2990    -0.1300 c2         1 6LM      -0.320200
     39 H3           3.2790     2.5750    -0.0550 hc         1 6LM       0.026700
     40 H11          0.1340    -0.3190    -1.0210 ha         1 6LM       0.177000
     41 H4           4.1400     1.6760    -1.3070 hc         1 6LM       0.026700
@<TRIPOS>BOND
     1     1     3 1   
     2     1    11 1   
     3     1    12 1   
     4     1    18 1   
     5     2    11 1   
     6     2    15 1   
     7     2    16 1   
     8     2    17 1   
     9     3    16 1   
    10     3    20 1   
    11     3    21 1   
    12     4     5 1   
    13     4    22 1   
    14     4    39 1   
    15     4    41 1   
    16     5     6 1   
    17     5    10 1   
    18     5    23 1   
    19     6     7 1   
    20     6    24 1   
    21     6    25 1   
    22     7     8 1   
    23     7     9 1   
    24    10    26 1   
    25    10    38 2   
    26    11    19 1   
    27    11    38 1   
    28    12    13 1   
    29    12    27 1   
    30    12    28 1   
    31    13    14 2   
    32    13    15 1   
    33    15    29 1   
    34    15    30 1   
    35    17    31 1   
    36    17    32 1   
    37    17    33 1   
    38    18    34 1   
    39    18    35 1   
    40    18    36 1   
    41    19    37 1   
    42    38    40 1   
@<TRIPOS>SUBSTRUCTURE
     1 6LM         1 TEMP              0 ****  ****    0 ROOT
