@<TRIPOS>MOLECULE
6LM
   41    42     1     0     0
SMALL
No Charge or Current Charge


@<TRIPOS>ATOM
      1 C10         -1.6810    -0.5500     1.1280 c5         1 6LM      -0.057000
      2 C15         -2.4920     0.8300    -0.7360 c5         1 6LM       0.161000
      3 C17         -3.2140    -0.2340     1.2750 c5         1 6LM       0.159600
      4 C01          3.4030     1.9130     0.2400 c3         1 6LM      -0.071100
      5 C02          2.6200     0.6360    -0.1380 c3         1 6LM      -0.024500
      6 C03          3.3080    -0.6750     0.3350 c3         1 6LM      -0.201400
      7 C04          4.6770    -0.8810    -0.3420 c          1 6LM       0.717000
      8 O05          5.6780    -0.4860     0.2360 o          1 6LM      -0.737000
      9 O06          4.7000    -1.4180    -1.4400 o          1 6LM      -0.737000
     10 C07          1.2070     0.7080     0.4070 c2         1 6LM      -0.143200
     11 C09         -1.2910     0.7700     0.3360 c5         1 6LM       0.216200
     12 C11         -1.4550    -1.8520     0.3040 c6         1 6LM      -0.181400
     13 C12         -2.6530    -1.6110    -1.4190 c          1 6LM       0.590100
     14 O13         -3.6340    -2.3000    -1.6730 o          1 6LM      -0.539100
     15 C14         -2.4800    -0.1990    -1.9310 c6         1 6LM      -0.196400
     16 O16         -3.6410     0.5060     0.0870 os         1 6LM      -0.464000
     17 C18         -2.7120     2.2420    -1.3430 c3         1 6LM      -0.085100
     18 C19         -0.9940    -0.7530     2.5090 c3         1 6LM      -0.070100
     19 O20         -1.2570     1.9160     1.1870 oh         1 6LM      -0.712000
     20 H1          -3.8220    -1.1420     1.3860 h1         1 6LM       0.045200
     21 H2          -3.4030     0.4010     2.1510 h1         1 6LM       0.045200
     22 H5           2.8570     2.8060    -0.0870 hc         1 6LM       0.026700
     23 H6           2.5730     0.6020    -1.2350 hc         1 6LM       0.067700
     24 H7           3.4240    -0.5930     1.4230 hc         1 6LM       0.020700
     25 H8           2.6250    -1.4770     0.0290 hc         1 6LM       0.020700
     26 H10          1.1520     0.7820     1.4930 ha         1 6LM       0.160000
     27 H12         -0.4000    -1.8840     0.0040 hc         1 6LM       0.076200
     28 H13         -1.7520    -2.7600     0.8440 hc         1 6LM       0.076200
     29 H14         -3.2720     0.0140    -2.6610 hc         1 6LM       0.076700
     30 H15         -1.5050    -0.1460    -2.4220 hc         1 6LM       0.076700
     31 H16         -1.8340     2.5650    -1.9140 hc         1 6LM       0.044700
     32 H17         -3.5740     2.2600    -2.0200 hc         1 6LM       0.044700
     33 H18         -2.9010     2.9930    -0.5670 hc         1 6LM       0.044700
     34 H19         -1.4670    -1.5730     3.0630 hc         1 6LM       0.043367
     35 H20          0.0670    -1.0080     2.4020 hc         1 6LM       0.043367
     36 H21         -1.0640     0.1410     3.1390 hc         1 6LM       0.043367
     37 H22         -0.5190     2.4610     0.8390 ho         1 6LM       0.509000
     38 C08          0.0850     0.6880    -0.3340 c2         1 6LM      -0.320200
     39 H3           3.5450     1.9790     1.3250 hc         1 6LM       0.026700
     40 H11          0.1840     0.6400    -1.4160 ha         1 6LM       0.177000
     41 H4           4.3880     1.9320    -0.2410 hc         1 6LM       0.026700
@<TRIPOS>BOND
     1     1     3 1   
     2     1    11 1   
     3     1    12 1   
     4     1    18 1   
     5     2    11 1   
     6     2    15 1   
     7     2    16 1   
     8     2    17 1   
     9     3    16 1   
    10     3    20 1   
    11     3    21 1   
    12     4     5 1   
    13     4    22 1   
    14     4    39 1   
    15     4    41 1   
    16     5     6 1   
    17     5    10 1   
    18     5    23 1   
    19     6     7 1   
    20     6    24 1   
    21     6    25 1   
    22     7     8 1   
    23     7     9 1   
    24    10    26 1   
    25    10    38 2   
    26    11    19 1   
    27    11    38 1   
    28    12    13 1   
    29    12    27 1   
    30    12    28 1   
    31    13    14 2   
    32    13    15 1   
    33    15    29 1   
    34    15    30 1   
    35    17    31 1   
    36    17    32 1   
    37    17    33 1   
    38    18    34 1   
    39    18    35 1   
    40    18    36 1   
    41    19    37 1   
    42    38    40 1   
@<TRIPOS>SUBSTRUCTURE
     1 6LM         1 TEMP              0 ****  ****    0 ROOT
