@<TRIPOS>MOLECULE
6LN
   10     9     1     0     0
SMALL
No Charge or Current Charge


@<TRIPOS>ATOM
      1 C1          -0.5310    -0.5180    -0.0270 c3         1 6LN       0.092600
      2 S1          -2.2620     0.1550    -0.0600 sh         1 6LN      -0.456800
      3 C2           0.5540     0.5750    -0.0260 c3         1 6LN       0.092600
      4 S2           2.2840    -0.0980     0.0070 sh         1 6LN      -0.456800
      5 H1          -0.4170    -1.1400     0.8700 h1         1 6LN       0.073200
      6 H2          -0.3920    -1.1620    -0.9050 h1         1 6LN       0.073200
      7 H3          -2.8890    -1.0490    -0.0530 hs         1 6LN       0.217800
      8 H4           0.4400     1.1970    -0.9230 h1         1 6LN       0.073200
      9 H5           0.4150     1.2190     0.8520 h1         1 6LN       0.073200
     10 H6           2.9120     1.1060     0.0010 hs         1 6LN       0.217800
@<TRIPOS>BOND
     1     1     2 1   
     2     1     3 1   
     3     1     5 1   
     4     1     6 1   
     5     2     7 1   
     6     3     4 1   
     7     3     8 1   
     8     3     9 1   
     9     4    10 1   
@<TRIPOS>SUBSTRUCTURE
     1 6LN         1 TEMP              0 ****  ****    0 ROOT
