@<TRIPOS>MOLECULE
6LN
   10     9     1     0     0
SMALL
abcg2


@<TRIPOS>ATOM
      1 C1          -0.4880    -0.5430    -0.0400 c3         1 6LN       0.092600
      2 S1          -2.1680     0.1670    -0.0830 sh         1 6LN      -0.456800
      3 C2           0.5110     0.5990    -0.0400 c3         1 6LN       0.092600
      4 S2           2.1920    -0.1100    -0.0170 sh         1 6LN      -0.456800
      5 H1          -0.3750    -1.1500     0.8580 h1         1 6LN       0.073200
      6 H2          -0.3430    -1.1820    -0.9110 h1         1 6LN       0.073200
      7 H3          -2.8380    -0.9870     0.0040 hs         1 6LN       0.217800
      8 H4           0.3900     1.2160    -0.9300 h1         1 6LN       0.073200
      9 H5           0.3730     1.2280     0.8390 h1         1 6LN       0.073200
     10 H6           2.8590     1.0460     0.0570 hs         1 6LN       0.217800
@<TRIPOS>BOND
     1     1     2 1   
     2     1     3 1   
     3     1     5 1   
     4     1     6 1   
     5     2     7 1   
     6     3     4 1   
     7     3     8 1   
     8     3     9 1   
     9     4    10 1   
@<TRIPOS>SUBSTRUCTURE
     1 6LN         1 TEMP              0 ****  ****    0 ROOT
