@<TRIPOS>MOLECULE
6LO
   60    64     1     0     0
SMALL
bcc


@<TRIPOS>ATOM
      1 C4           2.9290     1.9470    -0.6790 ca         1 6LO       0.472800
      2 C5           1.8240     2.6350    -0.1640 ca         1 6LO      -0.372400
      3 C6           1.9370     4.0420    -0.1870 ca         1 6LO       0.761200
      4 N1           3.0760     4.5990    -0.6100 nb         1 6LO      -0.831000
      5 N3           4.0670     2.4950    -1.1130 nb         1 6LO      -0.760000
      6 CAD          3.6190    -0.3940    -1.0590 cy         1 6LO       0.048000
      7 NAE          2.6540     0.6180    -0.6770 na         1 6LO      -0.142100
      8 CAF          1.3990     0.4420    -0.1520 cc         1 6LO      -0.106100
      9 C2           4.0600     3.8090    -1.0320 ca         1 6LO       0.704900
     10 NAX          0.9570     4.8680     0.2080 nv         1 6LO      -0.960500
     11 CAG          0.8420     1.6480     0.1790 cd         1 6LO      -0.062400
     12 CAH         -0.4820     1.8210     0.7850 ca         1 6LO       0.019200
     13 CAM         -1.5800     1.1460     0.2640 ca         1 6LO      -0.163000
     14 CAI         -0.6570     2.6370     1.9090 ca         1 6LO      -0.174000
     15 CAJ         -1.9120     2.7660     2.4770 ca         1 6LO      -0.091000
     16 CAK         -3.0130     2.0920     1.9590 ca         1 6LO      -0.222000
     17 CAL         -2.8420     1.2710     0.8470 ca         1 6LO       0.145100
     18 OAN         -3.8310     0.5720     0.2560 os         1 6LO      -0.319900
     19 CAO         -5.1490     0.6770     0.7830 c3         1 6LO       0.188700
     20 CAP         -6.0370    -0.1820    -0.0650 ca         1 6LO      -0.098300
     21 CAQ         -6.2580    -1.5140     0.2690 ca         1 6LO      -0.102000
     22 CAR         -7.0560    -2.3190    -0.5320 ca         1 6LO      -0.133000
     23 CAS         -7.6380    -1.7960    -1.6800 ca         1 6LO      -0.115000
     24 CAT         -7.4210    -0.4680    -2.0220 ca         1 6LO      -0.133000
     25 CAU         -6.6220     0.3340    -1.2180 ca         1 6LO      -0.102000
     26 H4           0.9790    -0.5420    -0.0200 h4         1 6LO       0.168000
     27 H5           4.9620     4.3180    -1.3590 h5         1 6LO       0.043100
     28 H6           0.0250     4.5290     0.3720 hn         1 6LO       0.442300
     29 H7           1.0640     5.8560     0.0490 hn         1 6LO       0.442300
     30 H8          -1.4670     0.5230    -0.6150 ha         1 6LO       0.147000
     31 H9           0.1910     3.1430     2.3510 ha         1 6LO       0.143000
     32 H10         -2.0430     3.3940     3.3480 ha         1 6LO       0.130000
     33 H11         -3.9780     2.2170     2.4310 ha         1 6LO       0.135000
     34 H12         -5.1710     0.3420     1.8250 h1         1 6LO       0.041200
     35 H13         -5.4850     1.7190     0.7590 h1         1 6LO       0.041200
     36 H14         -5.8070    -1.9240     1.1650 ha         1 6LO       0.132500
     37 H15         -7.2250    -3.3530    -0.2610 ha         1 6LO       0.133000
     38 H16         -8.2640    -2.4210    -2.3030 ha         1 6LO       0.132000
     39 H17         -7.8750    -0.0550    -2.9130 ha         1 6LO       0.133000
     40 H18         -6.4600     1.3720    -1.4840 ha         1 6LO       0.132500
     41 C1           4.5200    -0.8640     0.1050 cy         1 6LO      -0.096400
     42 C3           3.6360    -2.1180     0.2510 cy         1 6LO      -0.106700
     43 C7           3.0580    -1.8250    -1.1480 cy         1 6LO      -0.096400
     44 C8           4.3310    -3.4430     0.4640 c3         1 6LO       0.115000
     45 N2           3.3690    -4.5220     0.3990 ns         1 6LO      -0.576900
     46 C10          3.7080    -5.8080     0.2200 c          1 6LO       0.665100
     47 O1           4.8680    -6.1710     0.0670 o          1 6LO      -0.607100
     48 C12          2.5600    -6.7880     0.2180 c3         1 6LO      -0.179100
     49 H1           4.1380    -0.0300    -1.9440 h1         1 6LO       0.099700
     50 H2           5.5230    -1.1060    -0.2480 hc         1 6LO       0.067700
     51 H3           4.5990    -0.1970     0.9630 hc         1 6LO       0.067700
     52 H19          2.8800    -1.9660     1.0280 hc         1 6LO       0.059700
     53 H20          1.9900    -1.9590    -1.3130 hc         1 6LO       0.067700
     54 H21          3.5890    -2.3780    -1.9240 hc         1 6LO       0.067700
     55 H22          5.0870    -3.5880    -0.3100 h1         1 6LO       0.056700
     56 H23          4.8530    -3.4410     1.4270 h1         1 6LO       0.056700
     57 H24          2.4050    -4.3020     0.5920 hn         1 6LO       0.310500
     58 H25          1.5820    -6.3140     0.2750 hc         1 6LO       0.059367
     59 H26          2.6000    -7.3930    -0.6870 hc         1 6LO       0.059367
     60 H27          2.6630    -7.4650     1.0660 hc         1 6LO       0.059367
@<TRIPOS>BOND
     1     1     2 ar  
     2     1     5 ar  
     3     1     7 1   
     4     2     3 ar  
     5     2    11 1   
     6     3     4 ar  
     7     3    10 1   
     8     4     9 ar  
     9     5     9 ar  
    10     6     7 1   
    11     6    41 1   
    12     6    43 1   
    13     6    49 1   
    14     7     8 1   
    15     8    11 2   
    16     8    26 1   
    17     9    27 1   
    18    10    28 1   
    19    10    29 1   
    20    11    12 1   
    21    12    13 ar  
    22    12    14 ar  
    23    13    17 ar  
    24    13    30 1   
    25    14    15 ar  
    26    14    31 1   
    27    15    16 ar  
    28    15    32 1   
    29    16    17 ar  
    30    16    33 1   
    31    17    18 1   
    32    18    19 1   
    33    19    20 1   
    34    19    34 1   
    35    19    35 1   
    36    20    21 ar  
    37    20    25 ar  
    38    21    22 ar  
    39    21    36 1   
    40    22    23 ar  
    41    22    37 1   
    42    23    24 ar  
    43    23    38 1   
    44    24    25 ar  
    45    24    39 1   
    46    25    40 1   
    47    41    42 1   
    48    41    50 1   
    49    41    51 1   
    50    42    43 1   
    51    42    44 1   
    52    42    52 1   
    53    43    53 1   
    54    43    54 1   
    55    44    45 1   
    56    44    55 1   
    57    44    56 1   
    58    45    46 1   
    59    45    57 1   
    60    46    47 2   
    61    46    48 1   
    62    48    58 1   
    63    48    59 1   
    64    48    60 1   
@<TRIPOS>SUBSTRUCTURE
     1 6LO         1 TEMP              0 ****  ****    0 ROOT
