@<TRIPOS>MOLECULE
6LO
   60    64     1     0     0
SMALL
No Charge or Current Charge


@<TRIPOS>ATOM
      1 C4           3.0780     1.9680    -0.5100 ca         1 6LO       0.144500
      2 C5           2.0100     2.6180     0.0710 ca         1 6LO      -0.241800
      3 C6           2.0980     4.0070     0.2780 ca         1 6LO       0.432900
      4 N1           3.2230     4.6750    -0.0160 nb         1 6LO      -0.305000
      5 N3           4.2190     2.6210    -0.8110 nb         1 6LO      -0.234000
      6 CAD          3.5950    -0.3530    -1.3580 cy         1 6LO       0.077300
      7 NAE          2.7170     0.6470    -0.7500 na         1 6LO      -0.171400
      8 CAF          1.3850     0.4260    -0.3440 cc         1 6LO      -0.156100
      9 C2           4.2390     3.9430    -0.5280 ca         1 6LO       0.178900
     10 NAX          1.0690     4.7950     0.6650 nv         1 6LO      -1.070900
     11 CAG          0.9670     1.6120     0.2370 cd         1 6LO      -0.062400
     12 CAH         -0.3850     1.8070     0.8060 ca         1 6LO       0.019200
     13 CAM         -1.4740     1.0740     0.2920 ca         1 6LO      -0.145000
     14 CAI         -0.6060     2.6440     1.9180 ca         1 6LO      -0.156000
     15 CAJ         -1.8920     2.7930     2.4640 ca         1 6LO      -0.073000
     16 CAK         -2.9750     2.0890     1.9150 ca         1 6LO      -0.204000
     17 CAL         -2.7640     1.2170     0.8270 ca         1 6LO       0.145100
     18 OAN         -3.7830     0.4840     0.2550 os         1 6LO      -0.343100
     19 CAO         -5.1390     0.5560     0.7280 c3         1 6LO       0.211900
     20 CAP         -5.9970    -0.3730    -0.1200 ca         1 6LO      -0.098300
     21 CAQ         -6.1710    -1.7200     0.2550 ca         1 6LO      -0.084000
     22 CAR         -6.9640    -2.5770    -0.5270 ca         1 6LO      -0.115000
     23 CAS         -7.5880    -2.0930    -1.6900 ca         1 6LO      -0.097000
     24 CAT         -7.4170    -0.7510    -2.0700 ca         1 6LO      -0.115000
     25 CAU         -6.6240     0.1070    -1.2880 ca         1 6LO      -0.084000
     26 H4           0.8770    -0.5260    -0.4460 h4         1 6LO       0.218000
     27 H5           5.1570     4.4790    -0.7650 h5         1 6LO       0.043100
     28 H6           0.1370     4.3920     0.6390 hn         1 6LO       0.497500
     29 H7           1.1420     5.7950     0.5020 hn         1 6LO       0.497500
     30 H8          -1.3310     0.4030    -0.5500 ha         1 6LO       0.129000
     31 H9           0.2290     3.1400     2.4050 ha         1 6LO       0.125000
     32 H10         -2.0450     3.4420     3.3240 ha         1 6LO       0.112000
     33 H11         -3.9600     2.2210     2.3550 ha         1 6LO       0.117000
     34 H12         -5.1980     0.2490     1.7810 h1         1 6LO       0.041200
     35 H13         -5.5220     1.5820     0.6490 h1         1 6LO       0.041200
     36 H14         -5.6890    -2.1030     1.1530 ha         1 6LO       0.114500
     37 H15         -7.0950    -3.6160    -0.2330 ha         1 6LO       0.115000
     38 H16         -8.2020    -2.7570    -2.2950 ha         1 6LO       0.114000
     39 H17         -7.8980    -0.3760    -2.9700 ha         1 6LO       0.115000
     40 H18         -6.4940     1.1440    -1.5900 ha         1 6LO       0.114500
     41 C1           4.7890    -0.9150    -0.5120 cy         1 6LO      -0.096400
     42 C3           3.8160    -2.0670    -0.0820 cy         1 6LO      -0.106700
     43 C7           3.1660    -1.8580    -1.4970 cy         1 6LO      -0.096400
     44 C8           4.4320    -3.4350     0.2640 c3         1 6LO       0.115000
     45 N2           3.2320    -4.2700     0.3270 ns         1 6LO      -0.509900
     46 C10          3.2400    -5.6150     0.6060 c          1 6LO       0.598100
     47 O1           4.2700    -6.2320     0.8330 o          1 6LO      -0.607100
     48 C12          1.8680    -6.2750     0.6100 c3         1 6LO      -0.179100
     49 H1           3.9120     0.0880    -2.3100 h1         1 6LO       0.099700
     50 H2           5.6510    -1.2400    -1.1080 hc         1 6LO       0.067700
     51 H3           5.1510    -0.2690     0.2940 hc         1 6LO       0.067700
     52 H19          3.1610    -1.7700     0.7480 hc         1 6LO       0.059700
     53 H20          2.0940    -2.0610    -1.5760 hc         1 6LO       0.067700
     54 H21          3.6700    -2.3930    -2.3110 hc         1 6LO       0.067700
     55 H22          5.1080    -3.7750    -0.5320 h1         1 6LO       0.056700
     56 H23          4.9420    -3.3990     1.2360 h1         1 6LO       0.056700
     57 H24          2.3320    -3.8430     0.1490 hn         1 6LO       0.310500
     58 H25          1.3780    -6.0850    -0.3520 hc         1 6LO       0.059367
     59 H26          1.9150    -7.3460     0.8360 hc         1 6LO       0.059367
     60 H27          1.2170    -5.7410     1.3120 hc         1 6LO       0.059367
@<TRIPOS>BOND
     1     1     2 ar  
     2     1     5 ar  
     3     1     7 1   
     4     2     3 ar  
     5     2    11 1   
     6     3     4 ar  
     7     3    10 1   
     8     4     9 ar  
     9     5     9 ar  
    10     6     7 1   
    11     6    41 1   
    12     6    43 1   
    13     6    49 1   
    14     7     8 1   
    15     8    11 2   
    16     8    26 1   
    17     9    27 1   
    18    10    28 1   
    19    10    29 1   
    20    11    12 1   
    21    12    13 ar  
    22    12    14 ar  
    23    13    17 ar  
    24    13    30 1   
    25    14    15 ar  
    26    14    31 1   
    27    15    16 ar  
    28    15    32 1   
    29    16    17 ar  
    30    16    33 1   
    31    17    18 1   
    32    18    19 1   
    33    19    20 1   
    34    19    34 1   
    35    19    35 1   
    36    20    21 ar  
    37    20    25 ar  
    38    21    22 ar  
    39    21    36 1   
    40    22    23 ar  
    41    22    37 1   
    42    23    24 ar  
    43    23    38 1   
    44    24    25 ar  
    45    24    39 1   
    46    25    40 1   
    47    41    42 1   
    48    41    50 1   
    49    41    51 1   
    50    42    43 1   
    51    42    44 1   
    52    42    52 1   
    53    43    53 1   
    54    43    54 1   
    55    44    45 1   
    56    44    55 1   
    57    44    56 1   
    58    45    46 1   
    59    45    57 1   
    60    46    47 2   
    61    46    48 1   
    62    48    58 1   
    63    48    59 1   
    64    48    60 1   
@<TRIPOS>SUBSTRUCTURE
     1 6LO         1 TEMP              0 ****  ****    0 ROOT
