@<TRIPOS>MOLECULE
6LP
   41    43     1     0     0
SMALL
No Charge or Current Charge


@<TRIPOS>ATOM
      1 C4           1.3000     2.0000     0.0880 cp         1 6LP       0.222500
      2 C5           0.8630     3.3430    -0.0300 ca         1 6LP      -0.257000
      3 C6          -0.5150     3.6030     0.0180 ca         1 6LP       0.145900
      4 N1          -1.4110     2.6110     0.1670 nb         1 6LP      -0.228000
      5 N3           0.3840     1.0190     0.2350 nb         1 6LP      -0.247000
      6 CAU         -3.7620    -0.8830     1.1530 ca         1 6LP      -0.171000
      7 CAT         -5.1530    -1.0670     1.1500 ca         1 6LP       0.152000
      8 ClAV        -5.8630    -2.3780     2.0830 cl         1 6LP      -0.206000
      9 CAS         -5.9790    -0.2120     0.4060 ca         1 6LP      -0.136000
     10 CAR         -5.4100     0.8290    -0.3450 ca         1 6LP      -0.076000
     11 CAQ         -4.0160     1.0130    -0.3400 ca         1 6LP      -0.139000
     12 CAP         -3.1840     0.1660     0.4200 ca         1 6LP       0.332000
     13 C2          -0.9140     1.3640     0.2560 ca         1 6LP       0.389900
     14 CAF          2.7510     1.5950     0.0520 cp         1 6LP      -0.081500
     15 CAE          3.1580     0.2420    -0.0880 ca         1 6LP      -0.194000
     16 CAG          3.8140     2.5300     0.1590 ca         1 6LP      -0.215000
     17 CAH          5.1530     2.1010     0.1190 ca         1 6LP       0.385900
     18 NAI          5.5100     0.8060    -0.0180 nb         1 6LP      -0.750000
     19 CAD          4.5230    -0.0780    -0.1140 ca         1 6LP       0.620900
     20 NAC          5.0170    -1.3430    -0.2520 nu         1 6LP      -0.946100
     21 CAB          4.2770    -2.6120    -0.1280 c3         1 6LP       0.231800
     22 CAA          5.2100    -3.8470    -0.3150 c3         1 6LP       0.133800
     23 NAX          4.5050    -5.1520    -0.2050 n8         1 6LP      -0.994200
     24 H1           1.5600     4.1630    -0.1630 ha         1 6LP       0.140000
     25 H2          -0.9080     4.6160    -0.0660 h4         1 6LP       0.025100
     26 H3          -3.1360    -1.5520     1.7350 ha         1 6LP       0.127000
     27 H4          -7.0560    -0.3610     0.4060 ha         1 6LP       0.131000
     28 H5          -6.0450     1.4880    -0.9340 ha         1 6LP       0.118000
     29 H6          -3.5880     1.8060    -0.9440 ha         1 6LP       0.153000
     30 H7          -1.3060    -0.5450     0.7310 hn         1 6LP       0.513000
     31 H8           2.4250    -0.5520    -0.1830 ha         1 6LP       0.142000
     32 H9           3.6220     3.5900     0.2840 ha         1 6LP       0.124000
     33 H10          5.9670     2.8200     0.2030 h4         1 6LP       0.016100
     34 H11          6.0310    -1.3640    -0.1890 hn         1 6LP       0.499000
     35 H12          3.8050    -2.6710     0.8620 h1         1 6LP       0.049200
     36 H13          3.4790    -2.6520    -0.8830 h1         1 6LP       0.049200
     37 H14          5.6880    -3.7930    -1.3030 h1         1 6LP       0.035700
     38 H15          6.0000    -3.8180     0.4480 h1         1 6LP       0.035700
     39 H16          3.8420    -5.2460    -0.9850 hn         1 6LP       0.398500
     40 H17          5.1780    -5.9110    -0.3730 hn         1 6LP       0.398500
     41 NAO         -1.7920     0.3040     0.4430 nu         1 6LP      -0.928900
@<TRIPOS>BOND
     1     1     2 ar  
     2     1     5 ar  
     3     1    14 1   
     4     2     3 ar  
     5     2    24 1   
     6     3     4 ar  
     7     3    25 1   
     8     4    13 ar  
     9     5    13 ar  
    10     6     7 ar  
    11     6    12 ar  
    12     6    26 1   
    13     7     8 1   
    14     7     9 ar  
    15     9    10 ar  
    16     9    27 1   
    17    10    11 ar  
    18    10    28 1   
    19    11    12 ar  
    20    11    29 1   
    21    12    41 1   
    22    13    41 1   
    23    14    15 ar  
    24    14    16 ar  
    25    15    19 ar  
    26    15    31 1   
    27    16    17 ar  
    28    16    32 1   
    29    17    18 ar  
    30    17    33 1   
    31    18    19 ar  
    32    19    20 1   
    33    20    21 1   
    34    20    34 1   
    35    21    22 1   
    36    21    35 1   
    37    21    36 1   
    38    22    23 1   
    39    22    37 1   
    40    22    38 1   
    41    23    39 1   
    42    23    40 1   
    43    30    41 1   
@<TRIPOS>SUBSTRUCTURE
     1 6LP         1 TEMP              0 ****  ****    0 ROOT
