@<TRIPOS>MOLECULE
6LP
   41    43     1     0     0
SMALL
abcg2


@<TRIPOS>ATOM
      1 C4           1.3400     1.9310    -0.0460 cp         1 6LP       0.222500
      2 C5           0.9250     3.1970    -0.4560 ca         1 6LP      -0.257000
      3 C6          -0.4390     3.3980    -0.5310 ca         1 6LP       0.145900
      4 N1          -1.3290     2.4600    -0.2350 nb         1 6LP      -0.228000
      5 N3           0.4610     0.9860     0.2470 nb         1 6LP      -0.247000
      6 CAU         -3.5750    -1.0810     0.8550 ca         1 6LP      -0.171000
      7 CAT         -4.9420    -1.2690     0.9010 ca         1 6LP       0.152000
      8 CLAV        -5.5540    -2.8230     1.3690 cl         1 6LP      -0.206000
      9 CAS         -5.8340    -0.2550     0.5850 ca         1 6LP      -0.136000
     10 CAR         -5.3050     0.9730     0.2180 ca         1 6LP      -0.076000
     11 CAQ         -3.9370     1.1980     0.1620 ca         1 6LP      -0.139000
     12 CAP         -3.0530     0.1650     0.4820 ca         1 6LP       0.332000
     13 C2          -0.8350     1.2870     0.1430 ca         1 6LP       0.389900
     14 CAF          2.7740     1.5750     0.0620 cp         1 6LP      -0.081500
     15 CAE          3.1570     0.2460     0.0300 ca         1 6LP      -0.194000
     16 CAG          3.7550     2.5610     0.1880 ca         1 6LP      -0.215000
     17 CAH          5.0720     2.1470     0.2680 ca         1 6LP       0.385900
     18 NAI          5.4620     0.8820     0.2250 nb         1 6LP      -0.750000
     19 CAD          4.5270    -0.0680     0.1080 ca         1 6LP       0.620900
     20 NAC          4.9710    -1.3430     0.0770 nu         1 6LP      -0.946100
     21 CAB          4.1380    -2.4980    -0.1440 c3         1 6LP       0.231800
     22 CAA          4.9900    -3.7590    -0.1620 c3         1 6LP       0.133800
     23 NAX          4.1460    -4.9190    -0.3910 n8         1 6LP      -0.994200
     24 H1           1.6170     3.9820    -0.7210 ha         1 6LP       0.140000
     25 H2          -0.8370     4.3550    -0.8480 h4         1 6LP       0.025100
     26 H3          -2.9070    -1.8950     1.1050 ha         1 6LP       0.127000
     27 H4          -6.9020    -0.4160     0.6250 ha         1 6LP       0.131000
     28 H5          -5.9780     1.7830    -0.0330 ha         1 6LP       0.118000
     29 H6          -3.5650     2.1660    -0.1290 ha         1 6LP       0.153000
     30 H7          -1.1750    -0.5770     0.7410 hn         1 6LP       0.513000
     31 H8           2.4110    -0.5300    -0.0600 ha         1 6LP       0.142000
     32 H9           3.5160     3.6130     0.2410 ha         1 6LP       0.124000
     33 H10          5.8600     2.8840     0.3730 h4         1 6LP       0.016100
     34 H11          5.9710    -1.4580     0.0360 hn         1 6LP       0.499000
     35 H12          3.3870    -2.5900     0.6460 h1         1 6LP       0.049200
     36 H13          3.5950    -2.4170    -1.0950 h1         1 6LP       0.049200
     37 H14          5.7900    -3.6350    -0.9060 h1         1 6LP       0.035700
     38 H15          5.4780    -3.8690     0.8090 h1         1 6LP       0.035700
     39 H16          3.8160    -4.9140    -1.3480 hn         1 6LP       0.398500
     40 H17          4.7000    -5.7600    -0.2990 hn         1 6LP       0.398500
     41 NAO         -1.6690     0.2600     0.4680 nu         1 6LP      -0.928900
@<TRIPOS>BOND
     1     1     2 ar  
     2     1     5 ar  
     3     1    14 1   
     4     2     3 ar  
     5     2    24 1   
     6     3     4 ar  
     7     3    25 1   
     8     4    13 ar  
     9     5    13 ar  
    10     6     7 ar  
    11     6    12 ar  
    12     6    26 1   
    13     7     8 1   
    14     7     9 ar  
    15     9    10 ar  
    16     9    27 1   
    17    10    11 ar  
    18    10    28 1   
    19    11    12 ar  
    20    11    29 1   
    21    12    41 1   
    22    13    41 1   
    23    14    15 ar  
    24    14    16 ar  
    25    15    19 ar  
    26    15    31 1   
    27    16    17 ar  
    28    16    32 1   
    29    17    18 ar  
    30    17    33 1   
    31    18    19 ar  
    32    19    20 1   
    33    20    21 1   
    34    20    34 1   
    35    21    22 1   
    36    21    35 1   
    37    21    36 1   
    38    22    23 1   
    39    22    37 1   
    40    22    38 1   
    41    23    39 1   
    42    23    40 1   
    43    30    41 1   
@<TRIPOS>SUBSTRUCTURE
     1 6LP         1 TEMP              0 ****  ****    0 ROOT
