@<TRIPOS>MOLECULE
6LQ
   71    75     1     0     0
SMALL
abcg2


@<TRIPOS>ATOM
      1 C1          -5.4570    -1.6040     3.0910 c3         1 6LQ       0.150100
      2 N2          -5.8620    -0.4020     2.3990 n3         1 6LQ      -0.706600
      3 C3          -4.9820     0.7100     2.7010 c6         1 6LQ       0.131300
      4 C4          -5.4830     1.9850     2.0420 c6         1 6LQ       0.204800
      5 N5          -5.6800     1.8190     0.6020 n3         1 6LQ      -0.741500
      6 C6          -6.4660     0.6310     0.2710 c6         1 6LQ       0.204800
      7 C7          -5.9420    -0.6140     0.9680 c6         1 6LQ       0.131300
      8 S8          -4.5570     2.3910    -0.4520 sy         1 6LQ       1.168600
      9 O9          -5.1250     2.2600    -1.7840 o          1 6LQ      -0.537500
     10 O10         -4.1540     3.7020     0.0310 o          1 6LQ      -0.537500
     11 C11         -3.1410     1.3320    -0.3630 ca         1 6LQ      -0.308500
     12 C12         -3.0750     0.2030    -1.1700 ca         1 6LQ      -0.013000
     13 C13         -2.0210    -0.6800    -1.0170 ca         1 6LQ      -0.137500
     14 C14         -1.0290    -0.4600    -0.0580 cp         1 6LQ       0.047000
     15 C15         -1.1090     0.6940     0.7270 ca         1 6LQ      -0.137500
     16 C16         -2.1500     1.5910     0.5750 ca         1 6LQ      -0.013000
     17 C17          0.0730    -1.4120     0.1220 cp         1 6LQ      -0.199000
     18 C18          1.3570    -1.0010     0.4690 ca         1 6LQ       0.017000
     19 C19          2.3820    -1.9110     0.6640 ca         1 6LQ      -0.289600
     20 C20          2.0660    -3.2910     0.5380 ca         1 6LQ       0.673900
     21 N21          0.8380    -3.6850     0.1820 nb         1 6LQ      -0.771000
     22 C22         -0.1050    -2.7870    -0.0180 ca         1 6LQ       0.439900
     23 N23          2.9730    -4.2650     0.7190 nv         1 6LQ      -1.052900
     24 C24          3.7530    -1.4570     1.0150 c          1 6LQ       0.640700
     25 O25          4.5250    -2.1470     1.6690 o          1 6LQ      -0.620100
     26 N26          4.0680    -0.2320     0.5360 ns         1 6LQ      -0.156000
     27 C27          5.2510     0.4810     0.7280 ca         1 6LQ      -0.058000
     28 C28          6.0090     0.4180     1.8960 ca         1 6LQ       0.321900
     29 N29          7.1120     1.1290     2.0840 nb         1 6LQ      -0.646000
     30 C30          7.5050     1.9510     1.1210 ca         1 6LQ       0.310900
     31 C31          6.8100     2.0970    -0.0690 ca         1 6LQ      -0.140000
     32 C32          5.6640     1.3500    -0.2920 ca         1 6LQ      -0.103300
     33 C33          4.9310     1.4340    -1.6060 c3         1 6LQ       0.210100
     34 N34          3.4960     1.5610    -1.4390 n3         1 6LQ      -0.748600
     35 C35          2.7280     1.3570    -2.6600 c5         1 6LQ       0.154800
     36 C36          1.3180     1.7910    -2.2640 c5         1 6LQ      -0.083400
     37 C37          1.5350     2.8180    -1.1320 c5         1 6LQ      -0.083400
     38 C38          3.0510     2.8500    -0.9240 c5         1 6LQ       0.154800
     39 H11C        -5.4530    -1.4310     4.1680 h1         1 6LQ       0.034700
     40 H12C        -6.1640    -2.4080     2.8840 h1         1 6LQ       0.034700
     41 H13C        -4.4540    -1.9550     2.8020 h1         1 6LQ       0.034700
     42 H31C        -4.9650     0.8680     3.7820 h1         1 6LQ       0.041450
     43 H32C        -3.9430     0.5070     2.3900 h1         1 6LQ       0.041450
     44 H71C        -4.9650    -0.9010     0.5400 h1         1 6LQ       0.041450
     45 H72C        -6.6330    -1.4360     0.7650 h1         1 6LQ       0.041450
     46 H41C        -6.4520     2.2580     2.4660 h1         1 6LQ       0.075700
     47 H42C        -4.8020     2.8100     2.2400 h1         1 6LQ       0.075700
     48 H61C        -7.4910     0.8270     0.5970 h1         1 6LQ       0.075700
     49 H62C        -6.4950     0.4830    -0.8060 h1         1 6LQ       0.075700
     50 H12         -3.8290     0.0110    -1.9200 ha         1 6LQ       0.135000
     51 H16         -2.1890     2.4730     1.2000 ha         1 6LQ       0.135000
     52 H13         -1.9640    -1.5420    -1.6690 ha         1 6LQ       0.119500
     53 H15         -0.3660     0.8850     1.4900 ha         1 6LQ       0.119500
     54 H18          1.5520     0.0570     0.5950 ha         1 6LQ       0.127000
     55 H22         -1.0810    -3.1840    -0.2800 h4         1 6LQ       0.019100
     56 H231         3.8270    -4.0620     1.2090 hn         1 6LQ       0.508500
     57 H232         2.6420    -5.2150     0.7220 hn         1 6LQ       0.508500
     58 H26          3.4700     0.2110    -0.1760 hn         1 6LQ       0.206000
     59 H28          5.7100    -0.2280     2.7110 h4         1 6LQ       0.042100
     60 H30          8.4060     2.5250     1.3030 h4         1 6LQ       0.021100
     61 H31          7.1670     2.7860    -0.8250 ha         1 6LQ       0.120000
     62 H331         5.3490     2.2560    -2.2050 h1         1 6LQ       0.049700
     63 H332         5.1240     0.5110    -2.1620 h1         1 6LQ       0.049700
     64 H351         3.1120     1.9830    -3.4800 h1         1 6LQ       0.044450
     65 H352         2.7880     0.3170    -2.9840 h1         1 6LQ       0.044450
     66 H381         3.3370     2.9790     0.1210 h1         1 6LQ       0.044450
     67 H382         3.5060     3.6740    -1.4940 h1         1 6LQ       0.044450
     68 H361         0.7750     2.2080    -3.1110 hc         1 6LQ       0.052950
     69 H362         0.7420     0.9370    -1.9040 hc         1 6LQ       0.052950
     70 H371         1.1540     3.8060    -1.3890 hc         1 6LQ       0.052950
     71 H372         1.0230     2.5060    -0.2210 hc         1 6LQ       0.052950
@<TRIPOS>BOND
     1     1     2 1   
     2     1    39 1   
     3     1    40 1   
     4     1    41 1   
     5     2     3 1   
     6     2     7 1   
     7     3     4 1   
     8     3    42 1   
     9     3    43 1   
    10     4     5 1   
    11     4    46 1   
    12     4    47 1   
    13     5     6 1   
    14     5     8 1   
    15     6     7 1   
    16     6    48 1   
    17     6    49 1   
    18     7    44 1   
    19     7    45 1   
    20     8     9 2   
    21     8    10 2   
    22     8    11 1   
    23    11    12 ar  
    24    11    16 ar  
    25    12    13 ar  
    26    12    50 1   
    27    13    14 ar  
    28    13    52 1   
    29    14    15 ar  
    30    14    17 1   
    31    15    16 ar  
    32    15    53 1   
    33    16    51 1   
    34    17    18 ar  
    35    17    22 ar  
    36    18    19 ar  
    37    18    54 1   
    38    19    20 ar  
    39    19    24 1   
    40    20    21 ar  
    41    20    23 1   
    42    21    22 ar  
    43    22    55 1   
    44    23    56 1   
    45    23    57 1   
    46    24    25 2   
    47    24    26 1   
    48    26    27 1   
    49    26    58 1   
    50    27    28 ar  
    51    27    32 ar  
    52    28    29 ar  
    53    28    59 1   
    54    29    30 ar  
    55    30    31 ar  
    56    30    60 1   
    57    31    32 ar  
    58    31    61 1   
    59    32    33 1   
    60    33    34 1   
    61    33    62 1   
    62    33    63 1   
    63    34    35 1   
    64    34    38 1   
    65    35    36 1   
    66    35    64 1   
    67    35    65 1   
    68    36    37 1   
    69    36    68 1   
    70    36    69 1   
    71    37    38 1   
    72    37    70 1   
    73    37    71 1   
    74    38    66 1   
    75    38    67 1   
@<TRIPOS>SUBSTRUCTURE
     1 6LQ         1 TEMP              0 ****  ****    0 ROOT
