@<TRIPOS>MOLECULE
6LQ
   71    75     1     0     0
SMALL
No Charge or Current Charge


@<TRIPOS>ATOM
      1 C1          -8.7390    -1.0620     0.8290 c3         1 6LQ       0.150100
      2 N2          -7.6440    -0.1600     1.2470 n3         1 6LQ      -0.706600
      3 C3          -6.3150    -0.8440     1.2980 c6         1 6LQ       0.131300
      4 C4          -5.1770     0.1180     1.7680 c6         1 6LQ       0.204800
      5 N5          -5.0860     1.3530     0.9300 n3         1 6LQ      -0.741500
      6 C6          -6.4120     2.0350     0.8710 c6         1 6LQ       0.204800
      7 C7          -7.5680     1.0820     0.4160 c6         1 6LQ       0.131300
      8 S8          -4.2450     1.2370    -0.5490 sy         1 6LQ       1.168600
      9 O9          -5.0290     0.3910    -1.4560 o          1 6LQ      -0.537500
     10 O10         -3.8720     2.6130    -0.8950 o          1 6LQ      -0.537500
     11 C11         -2.7330     0.3810    -0.0690 ca         1 6LQ      -0.308500
     12 C12         -2.5160    -0.9580    -0.4500 ca         1 6LQ      -0.013000
     13 C13         -1.3360    -1.6150    -0.0620 ca         1 6LQ      -0.137500
     14 C14         -0.3510    -0.9530     0.7080 cp         1 6LQ       0.047000
     15 C15         -0.5930     0.3870     1.0910 ca         1 6LQ      -0.137500
     16 C16         -1.7690     1.0520     0.7070 ca         1 6LQ      -0.013000
     17 C17          0.9090    -1.6450     1.1040 cp         1 6LQ      -0.199000
     18 C18          2.1580    -0.9850     1.0560 ca         1 6LQ       0.017000
     19 C19          3.3170    -1.6790     1.4670 ca         1 6LQ      -0.289600
     20 C20          3.1500    -2.9970     1.8990 ca         1 6LQ       0.673900
     21 N21          2.0030    -3.6510     1.9530 nb         1 6LQ      -0.771000
     22 C22          0.8980    -2.9850     1.5560 ca         1 6LQ       0.439900
     23 N23          4.1240    -3.8030     2.3060 nv         1 6LQ      -1.052900
     24 C24          4.6690    -1.0290     1.4600 c          1 6LQ       0.640700
     25 O25          5.5860    -1.4270     2.1700 o          1 6LQ      -0.620100
     26 N26          4.8000     0.0640     0.6210 ns         1 6LQ      -0.156000
     27 C27          5.8660     0.9830     0.4300 ca         1 6LQ      -0.058000
     28 C28          6.8590     1.2130     1.4140 ca         1 6LQ       0.321900
     29 N29          7.8630     2.1110     1.2630 nb         1 6LQ      -0.646000
     30 C30          7.9060     2.8170     0.1110 ca         1 6LQ       0.310900
     31 C31          6.9640     2.6580    -0.9190 ca         1 6LQ      -0.140000
     32 C32          5.9170     1.7290    -0.7690 ca         1 6LQ      -0.103300
     33 C33          4.9050     1.5190    -1.8990 c3         1 6LQ       0.210100
     34 N34          3.4960     1.6600    -1.4680 n3         1 6LQ      -0.748600
     35 C35          2.4990     1.4000    -2.5260 c5         1 6LQ       0.154800
     36 C36          1.1730     1.7550    -1.8050 c5         1 6LQ      -0.083400
     37 C37          1.5950     2.8200    -0.7420 c5         1 6LQ      -0.083400
     38 C38          3.1160     3.0020    -0.9830 c5         1 6LQ       0.154800
     39 H11C        -8.8010    -1.9310     1.4990 h1         1 6LQ       0.034700
     40 H12C        -9.7050    -0.5410     0.8610 h1         1 6LQ       0.034700
     41 H13C        -8.5780    -1.4270    -0.1940 h1         1 6LQ       0.034700
     42 H31C        -6.3570    -1.6970     1.9920 h1         1 6LQ       0.041450
     43 H32C        -6.0570    -1.2540     0.3110 h1         1 6LQ       0.041450
     44 H71C        -7.4250     0.8230    -0.6430 h1         1 6LQ       0.041450
     45 H72C        -8.5160     1.6350     0.4770 h1         1 6LQ       0.041450
     46 H41C        -5.3980     0.4030     2.8070 h1         1 6LQ       0.075700
     47 H42C        -4.2260    -0.4310     1.8060 h1         1 6LQ       0.075700
     48 H61C        -6.6710     2.4120     1.8710 h1         1 6LQ       0.075700
     49 H62C        -6.3800     2.9140     0.2110 h1         1 6LQ       0.075700
     50 H12         -3.2530    -1.4940    -1.0470 ha         1 6LQ       0.135000
     51 H16         -1.9310     2.0830     1.0180 ha         1 6LQ       0.135000
     52 H13         -1.1780    -2.6430    -0.3750 ha         1 6LQ       0.119500
     53 H15          0.1350     0.9140     1.7010 ha         1 6LQ       0.119500
     54 H18          2.2050     0.0470     0.7160 ha         1 6LQ       0.127000
     55 H22         -0.0390    -3.5380     1.6180 h4         1 6LQ       0.019100
     56 H231         4.9720    -3.3280     2.6050 hn         1 6LQ       0.508500
     57 H232         3.8140    -4.5840     2.8690 hn         1 6LQ       0.508500
     58 H26          3.9940     0.2570     0.0360 hn         1 6LQ       0.206000
     59 H28          6.8460     0.6870     2.3670 h4         1 6LQ       0.042100
     60 H30          8.7230     3.5310     0.0100 h4         1 6LQ       0.021100
     61 H31          7.0570     3.2530    -1.8230 ha         1 6LQ       0.120000
     62 H331         5.1180     2.2300    -2.7100 h1         1 6LQ       0.049700
     63 H332         5.0640     0.5140    -2.3120 h1         1 6LQ       0.049700
     64 H351         2.6610     2.0530    -3.3960 h1         1 6LQ       0.044450
     65 H352         2.5140     0.3580    -2.8740 h1         1 6LQ       0.044450
     66 H381         3.6470     3.2880    -0.0650 h1         1 6LQ       0.044450
     67 H382         3.3080     3.7720    -1.7440 h1         1 6LQ       0.044450
     68 H361         0.4230     2.1370    -2.5060 hc         1 6LQ       0.052950
     69 H362         0.7430     0.8690    -1.3270 hc         1 6LQ       0.052950
     70 H371         1.0510     3.7640    -0.8550 hc         1 6LQ       0.052950
     71 H372         1.4040     2.4580     0.2730 hc         1 6LQ       0.052950
@<TRIPOS>BOND
     1     1     2 1   
     2     1    39 1   
     3     1    40 1   
     4     1    41 1   
     5     2     3 1   
     6     2     7 1   
     7     3     4 1   
     8     3    42 1   
     9     3    43 1   
    10     4     5 1   
    11     4    46 1   
    12     4    47 1   
    13     5     6 1   
    14     5     8 1   
    15     6     7 1   
    16     6    48 1   
    17     6    49 1   
    18     7    44 1   
    19     7    45 1   
    20     8     9 2   
    21     8    10 2   
    22     8    11 1   
    23    11    12 ar  
    24    11    16 ar  
    25    12    13 ar  
    26    12    50 1   
    27    13    14 ar  
    28    13    52 1   
    29    14    15 ar  
    30    14    17 1   
    31    15    16 ar  
    32    15    53 1   
    33    16    51 1   
    34    17    18 ar  
    35    17    22 ar  
    36    18    19 ar  
    37    18    54 1   
    38    19    20 ar  
    39    19    24 1   
    40    20    21 ar  
    41    20    23 1   
    42    21    22 ar  
    43    22    55 1   
    44    23    56 1   
    45    23    57 1   
    46    24    25 2   
    47    24    26 1   
    48    26    27 1   
    49    26    58 1   
    50    27    28 ar  
    51    27    32 ar  
    52    28    29 ar  
    53    28    59 1   
    54    29    30 ar  
    55    30    31 ar  
    56    30    60 1   
    57    31    32 ar  
    58    31    61 1   
    59    32    33 1   
    60    33    34 1   
    61    33    62 1   
    62    33    63 1   
    63    34    35 1   
    64    34    38 1   
    65    35    36 1   
    66    35    64 1   
    67    35    65 1   
    68    36    37 1   
    69    36    68 1   
    70    36    69 1   
    71    37    38 1   
    72    37    70 1   
    73    37    71 1   
    74    38    66 1   
    75    38    67 1   
@<TRIPOS>SUBSTRUCTURE
     1 6LQ         1 TEMP              0 ****  ****    0 ROOT
