@<TRIPOS>MOLECULE
6LR
   15    15     1     0     0
SMALL
abcg2


@<TRIPOS>ATOM
      1 N4           1.3720    -0.0000     0.2920 n7         1 6LR      -0.860400
      2 C3           0.7030    -1.1960    -0.1910 c6         1 6LR       0.119300
      3 C2          -0.7490    -1.1530     0.2470 c6         1 6LR       0.153600
      4 C5           0.7200     1.1890    -0.2270 c6         1 6LR       0.119300
      5 C6          -0.7320     1.1810     0.2120 c6         1 6LR       0.153600
      6 O1          -1.3960     0.0110    -0.2230 os         1 6LR      -0.453000
      7 H1           2.3440    -0.0120     0.0120 hn         1 6LR       0.413000
      8 H3           0.7450    -1.2960    -1.2880 h1         1 6LR       0.038700
      9 H4           1.1790    -2.0820     0.2340 h1         1 6LR       0.038700
     10 H5          -1.2940    -2.0100    -0.1520 h1         1 6LR       0.050200
     11 H6          -0.7990    -1.2030     1.3450 h1         1 6LR       0.050200
     12 H7           1.2090     2.0800     0.1720 h1         1 6LR       0.038700
     13 H8           0.7640     1.2570    -1.3260 h1         1 6LR       0.038700
     14 H9          -0.7810     1.2640     1.3070 h1         1 6LR       0.050200
     15 H10         -1.2650     2.0330    -0.2130 h1         1 6LR       0.050200
@<TRIPOS>BOND
     1     1     2 1   
     2     1     4 1   
     3     1     7 1   
     4     2     3 1   
     5     2     8 1   
     6     2     9 1   
     7     3     6 1   
     8     3    10 1   
     9     3    11 1   
    10     4     5 1   
    11     4    12 1   
    12     4    13 1   
    13     5     6 1   
    14     5    14 1   
    15     5    15 1   
@<TRIPOS>SUBSTRUCTURE
     1 6LR         1 TEMP              0 ****  ****    0 ROOT
