@<TRIPOS>MOLECULE
6LR
   15    15     1     0     0
SMALL
No Charge or Current Charge


@<TRIPOS>ATOM
      1 N4           1.4490    -0.0020     0.2370 n7         1 6LR      -0.860400
      2 C3           0.7180    -1.2410    -0.1630 c6         1 6LR       0.119300
      3 C2          -0.7850    -1.1940     0.2530 c6         1 6LR       0.153600
      4 C5           0.7360     1.2350    -0.2000 c6         1 6LR       0.119300
      5 C6          -0.7680     1.2220     0.2170 c6         1 6LR       0.153600
      6 O1          -1.4120     0.0110    -0.2540 os         1 6LR      -0.453000
      7 H1           2.3960    -0.0150    -0.1650 hn         1 6LR       0.413000
      8 H3           0.7790    -1.3620    -1.2550 h1         1 6LR       0.038700
      9 H4           1.2000    -2.1190     0.2920 h1         1 6LR       0.038700
     10 H5          -1.3130    -2.0710    -0.1470 h1         1 6LR       0.050200
     11 H6          -0.8730    -1.2130     1.3500 h1         1 6LR       0.050200
     12 H7           1.2310     2.1190     0.2290 h1         1 6LR       0.038700
     13 H8           0.7980     1.3220    -1.2960 h1         1 6LR       0.038700
     14 H9          -0.8550     1.2760     1.3120 h1         1 6LR       0.050200
     15 H10         -1.2830     2.0940    -0.2090 h1         1 6LR       0.050200
@<TRIPOS>BOND
     1     1     2 1   
     2     1     4 1   
     3     1     7 1   
     4     2     3 1   
     5     2     8 1   
     6     2     9 1   
     7     3     6 1   
     8     3    10 1   
     9     3    11 1   
    10     4     5 1   
    11     4    12 1   
    12     4    13 1   
    13     5     6 1   
    14     5    14 1   
    15     5    15 1   
@<TRIPOS>SUBSTRUCTURE
     1 6LR         1 TEMP              0 ****  ****    0 ROOT
