@<TRIPOS>MOLECULE
6LS
   44    44     1     0     0
SMALL
bcc


@<TRIPOS>ATOM
      1 O3          -4.4480    -1.9720    -0.9960 oh         1 6LS      -0.608800
      2 C4          -3.7260     0.2190    -0.4790 c6         1 6LS       0.121100
      3 C5          -2.5480     1.0520     0.0310 c6         1 6LS       0.149100
      4 O4          -4.1350     0.7520    -1.7160 oh         1 6LS      -0.598800
      5 C6          -2.9460     2.4900     0.2910 c3         1 6LS       0.145400
      6 O5          -2.0670     0.5250     1.2540 os         1 6LS      -0.420600
      7 O6          -1.7960     3.2250     0.6410 oh         1 6LS      -0.591800
      8 CAR          8.1200     0.3300    -0.4240 c3         1 6LS      -0.088100
      9 CAQ          6.8420    -0.4310    -0.7500 c3         1 6LS      -0.074400
     10 CAP          5.6200     0.1290    -0.0330 c3         1 6LS      -0.076400
     11 CAO          4.3340    -0.6200    -0.3600 c3         1 6LS      -0.074400
     12 CAN          3.1140    -0.0640     0.3640 c3         1 6LS      -0.074400
     13 CAM          1.8320    -0.8120     0.0220 c3         1 6LS      -0.082400
     14 CAL          0.6370    -0.2630     0.7760 c3         1 6LS       0.141400
     15 O1          -0.5220    -0.9730     0.3780 os         1 6LS      -0.445600
     16 C1          -1.6290    -0.8060     1.2080 c6         1 6LS       0.344900
     17 C2          -2.7340    -1.7270     0.7180 c6         1 6LS      -0.129400
     18 C3          -3.3040    -1.2390    -0.6080 c6         1 6LS       0.111100
     19 H32         -4.1640    -2.8210    -1.3460 ho         1 6LS       0.412000
     20 H41         -4.5390     0.2760     0.2640 h1         1 6LS       0.050700
     21 H5          -1.7580     1.0430    -0.7340 h1         1 6LS       0.069700
     22 H42         -4.8260     0.1810    -2.0690 ho         1 6LS       0.423000
     23 H62         -3.4170     2.8900    -0.6130 h1         1 6LS       0.034700
     24 H61         -3.7030     2.5140     1.0870 h1         1 6LS       0.034700
     25 H63         -2.0500     4.1480     0.7230 ho         1 6LS       0.403000
     26 HAR          8.0360     1.3800    -0.7090 hc         1 6LS       0.031367
     27 HAS          8.3390     0.2960     0.6450 hc         1 6LS       0.031367
     28 HAT          8.9800    -0.0860    -0.9510 hc         1 6LS       0.031367
     29 HAQ          6.6700    -0.4080    -1.8300 hc         1 6LS       0.036700
     30 HAU          6.9650    -1.4860    -0.4850 hc         1 6LS       0.036700
     31 HAV          5.7900     0.1020     1.0490 hc         1 6LS       0.037200
     32 HAP          5.4990     1.1870    -0.2930 hc         1 6LS       0.037200
     33 HAO          4.1620    -0.5870    -1.4410 hc         1 6LS       0.037700
     34 HAW          4.4560    -1.6790    -0.1050 hc         1 6LS       0.037700
     35 HAX          3.2840    -0.1060     1.4460 hc         1 6LS       0.039700
     36 HAN          2.9960     0.9960     0.1150 hc         1 6LS       0.039700
     37 HAM          1.6470    -0.7420    -1.0550 hc         1 6LS       0.048200
     38 HAY          1.9520    -1.8750     0.2540 hc         1 6LS       0.048200
     39 HAZ          0.7940    -0.3710     1.8580 h1         1 6LS       0.035200
     40 HAL          0.5280     0.8100     0.5740 h1         1 6LS       0.035200
     41 H1          -1.3630    -1.0440     2.2470 h2         1 6LS       0.068700
     42 H22         -2.3550    -2.7480     0.6280 hc         1 6LS       0.065700
     43 H21         -3.5270    -1.7430     1.4700 hc         1 6LS       0.065700
     44 H31         -2.5310    -1.3010    -1.3860 h1         1 6LS       0.059700
@<TRIPOS>BOND
     1     1    18 1   
     2     1    19 1   
     3     2     3 1   
     4     2     4 1   
     5     2    18 1   
     6     2    20 1   
     7     3     5 1   
     8     3     6 1   
     9     3    21 1   
    10     4    22 1   
    11     5     7 1   
    12     5    23 1   
    13     5    24 1   
    14     6    16 1   
    15     7    25 1   
    16     8     9 1   
    17     8    26 1   
    18     8    27 1   
    19     8    28 1   
    20     9    10 1   
    21     9    29 1   
    22     9    30 1   
    23    10    11 1   
    24    10    31 1   
    25    10    32 1   
    26    11    12 1   
    27    11    33 1   
    28    11    34 1   
    29    12    13 1   
    30    12    35 1   
    31    12    36 1   
    32    13    14 1   
    33    13    37 1   
    34    13    38 1   
    35    14    15 1   
    36    14    39 1   
    37    14    40 1   
    38    15    16 1   
    39    16    17 1   
    40    16    41 1   
    41    17    18 1   
    42    17    42 1   
    43    17    43 1   
    44    18    44 1   
@<TRIPOS>SUBSTRUCTURE
     1 6LS         1 TEMP              0 ****  ****    0 ROOT
