@<TRIPOS>MOLECULE
6LS
   44    44     1     0     0
SMALL
No Charge or Current Charge


@<TRIPOS>ATOM
      1 O3          -4.4610    -2.0410    -1.0540 oh         1 6LS      -0.671000
      2 C4          -3.6730     0.2440    -0.6150 c6         1 6LS       0.144300
      3 C5          -2.4630     1.0460    -0.0460 c6         1 6LS       0.172300
      4 O4          -4.0250     0.6460    -1.9520 oh         1 6LS      -0.721000
      5 C6          -2.7560     2.5810     0.0440 c3         1 6LS       0.168600
      6 O5          -2.1330     0.5610     1.2870 os         1 6LS      -0.467000
      7 O6          -1.6720     3.3420     0.6160 oh         1 6LS      -0.714000
      8 CAR          8.1320     0.3730    -0.5390 c3         1 6LS      -0.088100
      9 CAQ          6.7880    -0.2580    -0.9490 c3         1 6LS      -0.074400
     10 CAP          5.6300     0.1120     0.0030 c3         1 6LS      -0.076400
     11 CAO          4.2830    -0.5200    -0.4080 c3         1 6LS      -0.074400
     12 CAN          3.1250    -0.1490     0.5450 c3         1 6LS      -0.074400
     13 CAM          1.7770    -0.7820     0.1340 c3         1 6LS      -0.082400
     14 CAL          0.6250    -0.4100     1.0850 c3         1 6LS       0.164600
     15 O1          -0.5640    -1.0530     0.5970 os         1 6LS      -0.492000
     16 C1          -1.7630    -0.8330     1.3590 c6         1 6LS       0.391300
     17 C2          -2.9150    -1.7140     0.8210 c6         1 6LS      -0.129400
     18 C3          -3.3320    -1.2750    -0.6010 c6         1 6LS       0.134300
     19 H32         -4.1920    -2.9870    -1.0360 ho         1 6LS       0.451000
     20 H41         -4.5310     0.4070     0.0560 h1         1 6LS       0.050700
     21 H5          -1.5940     0.9070    -0.7050 h1         1 6LS       0.069700
     22 H42         -4.5640    -0.1050    -2.3010 ho         1 6LS       0.522000
     23 H62         -2.9740     2.9480    -0.9680 h1         1 6LS       0.034700
     24 H61         -3.6680     2.7180     0.6410 h1         1 6LS       0.034700
     25 H63         -1.9840     4.2740     0.6930 ho         1 6LS       0.502000
     26 HAR          8.0620     1.4670    -0.5360 hc         1 6LS       0.031367
     27 HAS          8.4270     0.0410     0.4630 hc         1 6LS       0.031367
     28 HAT          8.9210     0.0820    -1.2430 hc         1 6LS       0.031367
     29 HAQ          6.5390     0.0640    -1.9680 hc         1 6LS       0.036700
     30 HAU          6.9000    -1.3490    -0.9780 hc         1 6LS       0.036700
     31 HAV          5.8840    -0.2100     1.0210 hc         1 6LS       0.037200
     32 HAP          5.5220     1.2040     0.0300 hc         1 6LS       0.037200
     33 HAO          4.0290    -0.1980    -1.4260 hc         1 6LS       0.037700
     34 HAW          4.3910    -1.6120    -0.4360 hc         1 6LS       0.037700
     35 HAX          3.3780    -0.4720     1.5620 hc         1 6LS       0.039700
     36 HAN          3.0160     0.9420     0.5720 hc         1 6LS       0.039700
     37 HAM          1.5200    -0.4580    -0.8820 hc         1 6LS       0.048200
     38 HAY          1.8820    -1.8740     0.1090 hc         1 6LS       0.048200
     39 HAZ          0.8610    -0.7500     2.1020 h1         1 6LS       0.035200
     40 HAL          0.5030     0.6810     1.1010 h1         1 6LS       0.035200
     41 H1          -1.5750    -1.1030     2.4100 h2         1 6LS       0.068700
     42 H22         -2.6000    -2.7660     0.8210 hc         1 6LS       0.065700
     43 H21         -3.7710    -1.6430     1.5060 hc         1 6LS       0.065700
     44 H31         -2.4760    -1.4400    -1.2740 h1         1 6LS       0.059700
@<TRIPOS>BOND
     1     1    18 1   
     2     1    19 1   
     3     2     3 1   
     4     2     4 1   
     5     2    18 1   
     6     2    20 1   
     7     3     5 1   
     8     3     6 1   
     9     3    21 1   
    10     4    22 1   
    11     5     7 1   
    12     5    23 1   
    13     5    24 1   
    14     6    16 1   
    15     7    25 1   
    16     8     9 1   
    17     8    26 1   
    18     8    27 1   
    19     8    28 1   
    20     9    10 1   
    21     9    29 1   
    22     9    30 1   
    23    10    11 1   
    24    10    31 1   
    25    10    32 1   
    26    11    12 1   
    27    11    33 1   
    28    11    34 1   
    29    12    13 1   
    30    12    35 1   
    31    12    36 1   
    32    13    14 1   
    33    13    37 1   
    34    13    38 1   
    35    14    15 1   
    36    14    39 1   
    37    14    40 1   
    38    15    16 1   
    39    16    17 1   
    40    16    41 1   
    41    17    18 1   
    42    17    42 1   
    43    17    43 1   
    44    18    44 1   
@<TRIPOS>SUBSTRUCTURE
     1 6LS         1 TEMP              0 ****  ****    0 ROOT
