@<TRIPOS>MOLECULE
6LT
   66    70     1     0     0
SMALL
abcg2


@<TRIPOS>ATOM
      1 C1          28.1540   -28.5700    18.9540 cc         1 6LT      -0.200300
      2 C3          27.6540   -27.3580    17.1730 cc         1 6LT       0.407400
      3 C11         28.9040   -29.4710    13.2560 ca         1 6LT      -0.131000
      4 C12         28.9350   -29.6520    14.6410 cp         1 6LT       0.017000
      5 C14         28.3070   -30.8860    15.1880 cp         1 6LT      -0.063000
      6 C15         28.9120   -29.5120    19.8210 c3         1 6LT       0.001900
      7 C16         30.3670   -29.0780    20.0680 c3         1 6LT      -0.069400
      8 C17         31.3100   -29.2800    18.8810 c3         1 6LT      -0.106400
      9 C18         30.9950   -28.5110    17.5950 c3         1 6LT       0.160300
     10 C20         27.2330   -30.8290    16.0820 ca         1 6LT      -0.092500
     11 C21         26.6600   -31.9960    16.5750 ca         1 6LT      -0.113000
     12 C22         27.1500   -33.2380    16.1830 ca         1 6LT      -0.103000
     13 C23         28.2110   -33.3060    15.2860 ca         1 6LT      -0.113000
     14 C24         28.7810   -32.1390    14.7900 ca         1 6LT      -0.092500
     15 C25         28.9600   -28.8430    10.2800 c          1 6LT       0.646700
     16 C26         29.2500   -28.2950     8.9310 cc         1 6LT      -0.220600
     17 C28         30.3500   -27.5700     8.4960 cd         1 6LT      -0.171000
     18 C29         30.1370   -27.3980     7.1230 cd         1 6LT       0.154300
     19 N2          28.5240   -28.2880    17.6540 na         1 6LT      -0.157500
     20 N4          26.7500   -27.0300    18.0750 nd         1 6LT      -0.682000
     21 C5          27.0570   -27.7820    19.1920 cd         1 6LT       0.230900
     22 C6          29.6510   -28.9180    16.9580 c3         1 6LT       0.149600
     23 C7          29.5640   -28.7030    15.4610 ca         1 6LT      -0.127300
     24 C8          30.1370   -27.5810    14.8600 ca         1 6LT      -0.061000
     25 C9          30.0960   -27.3940    13.4910 ca         1 6LT      -0.168000
     26 C10         29.4780   -28.3430    12.6710 ca         1 6LT      -0.010000
     27 N13         29.4770   -28.0900    11.2900 ns         1 6LT      -0.136000
     28 O19         30.9890   -27.0970    17.8020 oh         1 6LT      -0.651000
     29 O27         28.3370   -29.8870    10.4430 o          1 6LT      -0.578100
     30 N30         28.9930   -27.9630     6.7370 nc         1 6LT      -0.452800
     31 N31         28.4660   -28.5080     7.8350 na         1 6LT       0.171800
     32 C32         27.1710   -29.2120     7.7390 c3         1 6LT       0.098300
     33 C33         31.0070   -26.6570     6.1680 c3         1 6LT       0.158000
     34 C34         26.1180   -28.2980     7.1230 c3         1 6LT      -0.103100
     35 C35         27.3470   -30.5190     6.9760 c3         1 6LT      -0.103100
     36 F36         30.8010   -27.0700     4.8790 f          1 6LT      -0.114500
     37 F37         30.7010   -25.3060     6.1890 f          1 6LT      -0.114500
     38 H1          27.7190   -26.9700    16.1710 h5         1 6LT       0.058100
     39 H2          28.4190   -30.2070    12.6380 ha         1 6LT       0.156000
     40 H3          28.3840   -29.5760    20.7740 hc         1 6LT       0.052200
     41 H4          28.9030   -30.5190    19.3880 hc         1 6LT       0.052200
     42 H5          30.7600   -29.6570    20.9070 hc         1 6LT       0.049700
     43 H6          30.3770   -28.0300    20.3780 hc         1 6LT       0.049700
     44 H7          31.3520   -30.3440    18.6250 hc         1 6LT       0.044700
     45 H8          32.3220   -28.9980    19.1870 hc         1 6LT       0.044700
     46 H9          31.7680   -28.7720    16.8650 h1         1 6LT       0.039700
     47 H10         26.8360   -29.8700    16.3840 ha         1 6LT       0.123000
     48 H11         25.8280   -31.9330    17.2650 ha         1 6LT       0.117000
     49 H12         26.7060   -34.1460    16.5710 ha         1 6LT       0.114000
     50 H13         28.5990   -34.2680    14.9740 ha         1 6LT       0.117000
     51 H14         29.6110   -32.1950    14.0960 ha         1 6LT       0.123000
     52 H15         31.1940   -27.2440     9.0800 ha         1 6LT       0.148000
     53 H16         26.4800   -27.7170    20.1010 h4         1 6LT       0.033100
     54 H17         29.5530   -29.9900    17.1290 h1         1 6LT       0.078700
     55 H18         30.6290   -26.8440    15.4790 ha         1 6LT       0.138000
     56 H19         30.5450   -26.5130    13.0500 ha         1 6LT       0.116000
     57 H20         29.9060   -27.2170    11.0190 hn         1 6LT       0.162000
     58 H21         31.8590   -26.8410    18.1330 ho         1 6LT       0.443000
     59 H22         26.8990   -29.4360     8.7660 h1         1 6LT       0.086700
     60 H23         32.0690   -26.7500     6.3960 h2         1 6LT       0.066700
     61 H24         26.0380   -27.3660     7.6840 hc         1 6LT       0.054367
     62 H25         26.3570   -28.0660     6.0860 hc         1 6LT       0.054367
     63 H26         25.1510   -28.8020     7.1510 hc         1 6LT       0.054367
     64 H27         28.1020   -31.1460     7.4520 hc         1 6LT       0.054367
     65 H28         26.4020   -31.0630     6.9650 hc         1 6LT       0.054367
     66 H29         27.6480   -30.3260     5.9450 hc         1 6LT       0.054367
@<TRIPOS>BOND
     1     1     6 1   
     2     1    19 1   
     3     1    21 2   
     4     2    19 1   
     5     2    20 2   
     6     2    38 1   
     7     3     4 ar  
     8     3    26 ar  
     9     3    39 1   
    10     4     5 1   
    11     4    23 ar  
    12     5    10 ar  
    13     5    14 ar  
    14     6     7 1   
    15     6    40 1   
    16     6    41 1   
    17     7     8 1   
    18     7    42 1   
    19     7    43 1   
    20     8     9 1   
    21     8    44 1   
    22     8    45 1   
    23     9    22 1   
    24     9    28 1   
    25     9    46 1   
    26    10    11 ar  
    27    10    47 1   
    28    11    12 ar  
    29    11    48 1   
    30    12    13 ar  
    31    12    49 1   
    32    13    14 ar  
    33    13    50 1   
    34    14    51 1   
    35    15    16 1   
    36    15    27 1   
    37    15    29 2   
    38    16    17 2   
    39    16    31 1   
    40    17    18 1   
    41    17    52 1   
    42    18    30 2   
    43    18    33 1   
    44    19    22 1   
    45    20    21 1   
    46    21    53 1   
    47    22    23 1   
    48    22    54 1   
    49    23    24 ar  
    50    24    25 ar  
    51    24    55 1   
    52    25    26 ar  
    53    25    56 1   
    54    26    27 1   
    55    27    57 1   
    56    28    58 1   
    57    30    31 1   
    58    31    32 1   
    59    32    34 1   
    60    32    35 1   
    61    32    59 1   
    62    33    36 1   
    63    33    37 1   
    64    33    60 1   
    65    34    61 1   
    66    34    62 1   
    67    34    63 1   
    68    35    64 1   
    69    35    65 1   
    70    35    66 1   
@<TRIPOS>SUBSTRUCTURE
     1 6LT         1 TEMP              0 ****  ****    0 ROOT
