@<TRIPOS>MOLECULE
6LT
   66    70     1     0     0
SMALL
No Charge or Current Charge


@<TRIPOS>ATOM
      1 C1          28.5670   -28.2980    19.1510 cc         1 6LT      -0.200300
      2 C3          28.1670   -26.9940    17.3990 cc         1 6LT       0.407400
      3 C11         28.6140   -29.4270    13.2930 ca         1 6LT      -0.131000
      4 C12         28.7020   -29.6450    14.6880 cp         1 6LT       0.017000
      5 C14         27.9300   -30.7760    15.2820 cp         1 6LT      -0.063000
      6 C15         29.1450   -29.3880    20.0150 c3         1 6LT       0.001900
      7 C16         30.6920   -29.3780    20.0540 c3         1 6LT      -0.069400
      8 C17         31.3960   -29.8780    18.7610 c3         1 6LT      -0.106400
      9 C18         31.1870   -29.0330    17.4730 c3         1 6LT       0.160300
     10 C20         26.9210   -30.5500    16.2490 ca         1 6LT      -0.092500
     11 C21         26.2010   -31.6210    16.8060 ca         1 6LT      -0.113000
     12 C22         26.4720   -32.9370    16.3960 ca         1 6LT      -0.103000
     13 C23         27.4590   -33.1800    15.4270 ca         1 6LT      -0.113000
     14 C24         28.1800   -32.1080    14.8730 ca         1 6LT      -0.092500
     15 C25         28.6490   -28.7800    10.2090 c          1 6LT       0.646700
     16 C26         28.8330   -28.0990     8.8990 cc         1 6LT      -0.220600
     17 C28         29.5160   -26.9260     8.6830 cd         1 6LT      -0.171000
     18 C29         29.4720   -26.6490     7.3040 cd         1 6LT       0.154300
     19 N2          28.8400   -28.1270    17.8120 na         1 6LT      -0.157500
     20 N4          27.4720   -26.4660    18.3980 nd         1 6LT      -0.682000
     21 C5          27.7220   -27.2710    19.4900 cd         1 6LT       0.230900
     22 C6          29.6990   -29.0020    16.9900 c3         1 6LT       0.149600
     23 C7          29.5240   -28.7840    15.4730 ca         1 6LT      -0.127300
     24 C8          30.1990   -27.7190    14.8380 ca         1 6LT      -0.061000
     25 C9          30.0850   -27.5160    13.4540 ca         1 6LT      -0.168000
     26 C10         29.3020   -28.3700    12.6640 ca         1 6LT      -0.010000
     27 N13         29.2390   -28.1030    11.2690 ns         1 6LT      -0.136000
     28 O19         31.7200   -27.7120    17.6850 oh         1 6LT      -0.651000
     29 O27         28.0420   -29.8370    10.3300 o          1 6LT      -0.578100
     30 N30         28.8050   -27.5680     6.6330 nc         1 6LT      -0.452800
     31 N31         28.3980   -28.4560     7.6160 na         1 6LT       0.171800
     32 C32         27.6110   -29.6620     7.2420 c3         1 6LT       0.098300
     33 C33         30.1030   -25.4570     6.6150 c3         1 6LT       0.158000
     34 C34         26.6040   -29.4120     6.0920 c3         1 6LT      -0.103100
     35 C35         28.5330   -30.8630     6.9370 c3         1 6LT      -0.103100
     36 F36         31.0260   -25.8330     5.6970 f          1 6LT      -0.114500
     37 F37         29.1850   -24.7020     5.9660 f          1 6LT      -0.114500
     38 H1          28.2100   -26.6220    16.3820 h5         1 6LT       0.058100
     39 H2          27.9810   -30.0960    12.7200 ha         1 6LT       0.156000
     40 H3          28.7710   -29.2700    21.0390 hc         1 6LT       0.052200
     41 H4          28.7920   -30.3690    19.6730 hc         1 6LT       0.052200
     42 H5          31.0130   -30.0220    20.8820 hc         1 6LT       0.049700
     43 H6          31.0410   -28.3680    20.3030 hc         1 6LT       0.049700
     44 H7          31.0720   -30.9070    18.5610 hc         1 6LT       0.044700
     45 H8          32.4730   -29.9420    18.9610 hc         1 6LT       0.044700
     46 H9          31.7650   -29.5300    16.6820 h1         1 6LT       0.039700
     47 H10         26.6940   -29.5350    16.5660 ha         1 6LT       0.123000
     48 H11         25.4310   -31.4300    17.5510 ha         1 6LT       0.117000
     49 H12         25.9140   -33.7670    16.8260 ha         1 6LT       0.114000
     50 H13         27.6680   -34.1990    15.1070 ha         1 6LT       0.117000
     51 H14         28.9460   -32.3070    14.1260 ha         1 6LT       0.123000
     52 H15         30.0170   -26.3100     9.4240 ha         1 6LT       0.148000
     53 H16         27.2880   -27.0620    20.4600 h4         1 6LT       0.033100
     54 H17         29.3430   -30.0190    17.1910 h1         1 6LT       0.078700
     55 H18         30.8170   -27.0340    15.4130 ha         1 6LT       0.138000
     56 H19         30.6190   -26.6860    12.9950 ha         1 6LT       0.116000
     57 H20         29.7140   -27.2540    10.9960 hn         1 6LT       0.162000
     58 H21         32.6350   -27.8230    18.0240 ho         1 6LT       0.443000
     59 H22         27.0030   -29.9290     8.1140 h1         1 6LT       0.086700
     60 H23         30.5990   -24.8280     7.3610 h2         1 6LT       0.066700
     61 H24         25.9480   -28.5660     6.3310 hc         1 6LT       0.054367
     62 H25         27.1220   -29.1930     5.1500 hc         1 6LT       0.054367
     63 H26         25.9730   -30.2950     5.9350 hc         1 6LT       0.054367
     64 H27         29.1870   -31.0740     7.7920 hc         1 6LT       0.054367
     65 H28         27.9410   -31.7630     6.7320 hc         1 6LT       0.054367
     66 H29         29.1640   -30.6570     6.0640 hc         1 6LT       0.054367
@<TRIPOS>BOND
     1     1     6 1   
     2     1    19 1   
     3     1    21 2   
     4     2    19 1   
     5     2    20 2   
     6     2    38 1   
     7     3     4 ar  
     8     3    26 ar  
     9     3    39 1   
    10     4     5 1   
    11     4    23 ar  
    12     5    10 ar  
    13     5    14 ar  
    14     6     7 1   
    15     6    40 1   
    16     6    41 1   
    17     7     8 1   
    18     7    42 1   
    19     7    43 1   
    20     8     9 1   
    21     8    44 1   
    22     8    45 1   
    23     9    22 1   
    24     9    28 1   
    25     9    46 1   
    26    10    11 ar  
    27    10    47 1   
    28    11    12 ar  
    29    11    48 1   
    30    12    13 ar  
    31    12    49 1   
    32    13    14 ar  
    33    13    50 1   
    34    14    51 1   
    35    15    16 1   
    36    15    27 1   
    37    15    29 2   
    38    16    17 2   
    39    16    31 1   
    40    17    18 1   
    41    17    52 1   
    42    18    30 2   
    43    18    33 1   
    44    19    22 1   
    45    20    21 1   
    46    21    53 1   
    47    22    23 1   
    48    22    54 1   
    49    23    24 ar  
    50    24    25 ar  
    51    24    55 1   
    52    25    26 ar  
    53    25    56 1   
    54    26    27 1   
    55    27    57 1   
    56    28    58 1   
    57    30    31 1   
    58    31    32 1   
    59    32    34 1   
    60    32    35 1   
    61    32    59 1   
    62    33    36 1   
    63    33    37 1   
    64    33    60 1   
    65    34    61 1   
    66    34    62 1   
    67    34    63 1   
    68    35    64 1   
    69    35    65 1   
    70    35    66 1   
@<TRIPOS>SUBSTRUCTURE
     1 6LT         1 TEMP              0 ****  ****    0 ROOT
