@<TRIPOS>MOLECULE
6LU
   39    40     1     0     0
SMALL
bcc


@<TRIPOS>ATOM
      1 CAR          5.5020     3.1730    -0.4800 c3         1 6LU      -0.048800
      2 CAN          5.2430     1.7130    -0.2440 ca         1 6LU      -0.046300
      3 CAO          3.9520     1.2090    -0.3830 ca         1 6LU      -0.163500
      4 CAM          6.2760     0.8600     0.1260 ca         1 6LU      -0.148000
      5 CAL          6.0420    -0.4930     0.3600 ca         1 6LU      -0.046300
      6 CAS          7.1700    -1.4150     0.7210 c3         1 6LU      -0.048800
      7 CAK          4.7480    -0.9790     0.2330 ca         1 6LU      -0.163500
      8 CAJ          3.6980    -0.1370    -0.1360 ca         1 6LU       0.080600
      9 NAI          2.4370    -0.7270    -0.2870 ns         1 6LU      -0.488100
     10 CAH          1.2240    -0.1270    -0.1070 c          1 6LU       0.803100
     11 OAP          1.0770     1.0450     0.1820 o          1 6LU      -0.592100
     12 NAG          0.1810    -1.0060    -0.2950 ns         1 6LU      -0.489100
     13 CAF         -1.1780    -0.7610    -0.2030 ca         1 6LU       0.149600
     14 CAE         -2.0260    -1.8220    -0.5440 ca         1 6LU      -0.202000
     15 CAD         -3.3980    -1.6880    -0.4840 ca         1 6LU       0.007000
     16 CAC         -3.9470    -0.4810    -0.0740 ca         1 6LU      -0.315500
     17 SAQ         -5.6940    -0.2780     0.0080 sy         1 6LU       1.274200
     18 OAT         -6.0590     1.0600    -0.4380 o          1 6LU      -0.618300
     19 OAU         -6.3120    -1.4160    -0.6600 o          1 6LU      -0.618300
     20 NAV         -5.9430    -0.2800     1.6430 n8         1 6LU      -0.889700
     21 CAB         -3.1210     0.5810     0.2690 ca         1 6LU       0.007000
     22 CAA         -1.7470     0.4520     0.2080 ca         1 6LU      -0.202000
     23 H1           5.2290     3.7630     0.3980 hc         1 6LU       0.044367
     24 H2           6.5530     3.3660    -0.6890 hc         1 6LU       0.044367
     25 H3           4.9140     3.5530    -1.3150 hc         1 6LU       0.044367
     26 H4           3.1590     1.8740    -0.6940 ha         1 6LU       0.142000
     27 H5           7.2820     1.2530     0.2280 ha         1 6LU       0.132000
     28 H6           7.6580    -1.8010    -0.1760 hc         1 6LU       0.044367
     29 H7           7.9320    -0.9040     1.3090 hc         1 6LU       0.044367
     30 H8           6.8210    -2.2740     1.2940 hc         1 6LU       0.044367
     31 H9           4.5510    -2.0280     0.4260 ha         1 6LU       0.142000
     32 H10          2.4510    -1.7310    -0.3830 hn         1 6LU       0.313500
     33 H11          0.4170    -1.9420    -0.5870 hn         1 6LU       0.315500
     34 H12         -1.6040    -2.7660    -0.8680 ha         1 6LU       0.153000
     35 H13         -4.0250    -2.5250    -0.7580 ha         1 6LU       0.155500
     36 H14         -6.8590     0.0920     1.8770 hn         1 6LU       0.415300
     37 H15         -5.8280    -1.2010     2.0540 hn         1 6LU       0.415300
     38 H16         -3.5390     1.5260     0.5900 ha         1 6LU       0.155500
     39 H17         -1.1320     1.2920     0.4790 ha         1 6LU       0.153000
@<TRIPOS>BOND
     1     1     2 1   
     2     1    23 1   
     3     1    24 1   
     4     1    25 1   
     5     2     3 ar  
     6     2     4 ar  
     7     3     8 ar  
     8     3    26 1   
     9     4     5 ar  
    10     4    27 1   
    11     5     6 1   
    12     5     7 ar  
    13     6    28 1   
    14     6    29 1   
    15     6    30 1   
    16     7     8 ar  
    17     7    31 1   
    18     8     9 1   
    19     9    10 1   
    20     9    32 1   
    21    10    11 2   
    22    10    12 1   
    23    12    13 1   
    24    12    33 1   
    25    13    14 ar  
    26    13    22 ar  
    27    14    15 ar  
    28    14    34 1   
    29    15    16 ar  
    30    15    35 1   
    31    16    17 1   
    32    16    21 ar  
    33    17    18 2   
    34    17    19 2   
    35    17    20 1   
    36    20    36 1   
    37    20    37 1   
    38    21    22 ar  
    39    21    38 1   
    40    22    39 1   
@<TRIPOS>SUBSTRUCTURE
     1 6LU         1 TEMP              0 ****  ****    0 ROOT
