@<TRIPOS>MOLECULE
6LU
   39    40     1     0     0
SMALL
No Charge or Current Charge


@<TRIPOS>ATOM
      1 CAR          5.7610     3.2220    -0.1220 c3         1 6LU      -0.048800
      2 CAN          5.4150     1.7420    -0.0480 ca         1 6LU      -0.046300
      3 CAO          4.0690     1.3310    -0.0460 ca         1 6LU      -0.145500
      4 CAM          6.4370     0.7790     0.0260 ca         1 6LU      -0.130000
      5 CAL          6.1220    -0.5880     0.1010 ca         1 6LU      -0.046300
      6 CAS          7.2300    -1.6280     0.1770 c3         1 6LU      -0.048800
      7 CAK          4.7740    -0.9890     0.0970 ca         1 6LU      -0.145500
      8 CAJ          3.7370    -0.0400     0.0240 ca         1 6LU      -0.012000
      9 NAI          2.4000    -0.5300     0.0290 ns         1 6LU      -0.162000
     10 CAH          1.1680     0.1040    -0.0660 c          1 6LU       0.669100
     11 OAP          1.0200     1.3130    -0.1910 o          1 6LU      -0.592100
     12 NAG          0.1270    -0.8100    -0.0050 ns         1 6LU      -0.163000
     13 CAF         -1.2850    -0.6590    -0.0560 ca         1 6LU       0.057000
     14 CAE         -2.0650    -1.8270     0.0170 ca         1 6LU      -0.184000
     15 CAD         -3.4680    -1.7660    -0.0270 ca         1 6LU       0.025000
     16 CAC         -4.1110    -0.5190    -0.1450 ca         1 6LU      -0.315500
     17 SAQ         -5.8980    -0.4230    -0.2020 sy         1 6LU       1.132600
     18 OAT         -6.3270     0.7950    -0.8880 o          1 6LU      -0.547500
     19 OAU         -6.4610    -1.7400    -0.4890 o          1 6LU      -0.547500
     20 NAV         -6.2600    -0.1780     1.3730 n8         1 6LU      -1.000100
     21 CAB         -3.3420     0.6580    -0.2180 ca         1 6LU       0.025000
     22 CAA         -1.9390     0.5870    -0.1740 ca         1 6LU      -0.184000
     23 H1           5.7670     3.6710     0.8780 hc         1 6LU       0.044367
     24 H2           6.7510     3.3810    -0.5670 hc         1 6LU       0.044367
     25 H3           5.0350     3.7710    -0.7330 hc         1 6LU       0.044367
     26 H4           3.3000     2.0930    -0.0970 ha         1 6LU       0.124000
     27 H5           7.4780     1.0950     0.0270 ha         1 6LU       0.114000
     28 H6           7.5090    -1.9740    -0.8250 hc         1 6LU       0.044367
     29 H7           8.1290    -1.2200     0.6540 hc         1 6LU       0.044367
     30 H8           6.9170    -2.5020     0.7600 hc         1 6LU       0.044367
     31 H9           4.5320    -2.0480     0.1510 ha         1 6LU       0.124000
     32 H10          2.3410    -1.5350     0.1210 hn         1 6LU       0.147000
     33 H11          0.4250    -1.7710     0.0960 hn         1 6LU       0.149000
     34 H12         -1.5820    -2.7980     0.1070 ha         1 6LU       0.135000
     35 H13         -4.0450    -2.6880     0.0290 ha         1 6LU       0.137500
     36 H14         -6.9320    -0.9260     1.5330 hn         1 6LU       0.470500
     37 H15         -5.4170    -0.5030     1.8390 hn         1 6LU       0.470500
     38 H16         -3.8250     1.6310    -0.3080 ha         1 6LU       0.137500
     39 H17         -1.3820     1.5160    -0.2320 ha         1 6LU       0.135000
@<TRIPOS>BOND
     1     1     2 1   
     2     1    23 1   
     3     1    24 1   
     4     1    25 1   
     5     2     3 ar  
     6     2     4 ar  
     7     3     8 ar  
     8     3    26 1   
     9     4     5 ar  
    10     4    27 1   
    11     5     6 1   
    12     5     7 ar  
    13     6    28 1   
    14     6    29 1   
    15     6    30 1   
    16     7     8 ar  
    17     7    31 1   
    18     8     9 1   
    19     9    10 1   
    20     9    32 1   
    21    10    11 2   
    22    10    12 1   
    23    12    13 1   
    24    12    33 1   
    25    13    14 ar  
    26    13    22 ar  
    27    14    15 ar  
    28    14    34 1   
    29    15    16 ar  
    30    15    35 1   
    31    16    17 1   
    32    16    21 ar  
    33    17    18 2   
    34    17    19 2   
    35    17    20 1   
    36    20    36 1   
    37    20    37 1   
    38    21    22 ar  
    39    21    38 1   
    40    22    39 1   
@<TRIPOS>SUBSTRUCTURE
     1 6LU         1 TEMP              0 ****  ****    0 ROOT
