@<TRIPOS>MOLECULE
6LV
   42    45     1     0     0
SMALL
No Charge or Current Charge


@<TRIPOS>ATOM
      1 N1           2.9320     1.8460    -2.9120 nv         1 6LV      -0.989200
      2 C2           2.6040     1.1340    -1.8440 cc         1 6LV       0.735200
      3 N8           1.7020     1.5570    -1.0050 nd         1 6LV      -0.646100
      4 N9           1.7190     0.5090    -0.0950 na         1 6LV       0.048900
      5 C4           2.6450    -0.4150    -0.5090 cd         1 6LV       0.001000
      6 N3           3.2250    -0.0370    -1.6270 nc         1 6LV      -0.435300
      7 C10          0.9660     0.3120     1.0920 cc         1 6LV       0.587800
      8 N11          1.1530    -0.7950     1.8570 nd         1 6LV      -0.688000
      9 C12          2.1120    -1.7450     1.4240 ca         1 6LV       0.285000
     10 C13          2.3000    -2.8930     2.2170 ca         1 6LV      -0.087000
     11 C14          3.2330    -3.8810     1.8510 ca         1 6LV      -0.088000
     12 C7           3.9940    -3.7300     0.6810 ca         1 6LV      -0.119000
     13 C6           3.8200    -2.5910    -0.1230 ca         1 6LV      -0.054000
     14 C5           2.8830    -1.6100     0.2540 ca         1 6LV      -0.077000
     15 C15         -0.0590     1.3320     1.5150 c3         1 6LV      -0.080400
     16 C16         -1.4230     1.0950     0.8810 ca         1 6LV      -0.002300
     17 C23         -2.3160     0.1680     1.4470 ca         1 6LV      -0.167000
     18 C22         -3.5720    -0.0620     0.8670 ca         1 6LV       0.176600
     19 O24         -4.3980    -0.9860     1.4750 os         1 6LV      -0.342100
     20 C25         -5.7060    -1.3020     0.9670 c3         1 6LV       0.150900
     21 C21         -3.9480     0.6410    -0.2960 ca         1 6LV      -0.282000
     22 C18         -3.0560     1.5710    -0.8700 ca         1 6LV       0.176600
     23 C17         -1.8030     1.7910    -0.2790 ca         1 6LV      -0.167000
     24 O19         -3.3630     2.2890    -2.0070 os         1 6LV      -0.342100
     25 C20         -4.6180     2.1420    -2.6960 c3         1 6LV       0.150900
     26 H11          2.6790     2.8230    -2.8590 hn         1 6LV       0.476500
     27 H12          3.8340     1.6330    -3.3160 hn         1 6LV       0.476500
     28 H151        -0.1500     1.3160     2.6070 hc         1 6LV       0.085200
     29 H152         0.3050     2.3360     1.2730 hc         1 6LV       0.085200
     30 H13          1.7140    -3.0160     3.1240 ha         1 6LV       0.136000
     31 H14          3.3640    -4.7620     2.4770 ha         1 6LV       0.118000
     32 H7           4.7160    -4.4920     0.3960 ha         1 6LV       0.120000
     33 H6           4.4090    -2.4720    -1.0300 ha         1 6LV       0.137000
     34 H23         -2.0350    -0.3810     2.3420 ha         1 6LV       0.129500
     35 H17         -1.1220     2.5070    -0.7320 ha         1 6LV       0.129500
     36 H21         -4.9170     0.4670    -0.7480 ha         1 6LV       0.119000
     37 H251        -6.1870    -2.0570     1.6000 h1         1 6LV       0.039533
     38 H252        -6.3460    -0.4100     0.9560 h1         1 6LV       0.039533
     39 H253        -5.6420    -1.7030    -0.0520 h1         1 6LV       0.039533
     40 H201        -4.6510     2.8030    -3.5700 h1         1 6LV       0.039533
     41 H202        -4.7520     1.1100    -3.0450 h1         1 6LV       0.039533
     42 H203        -5.4560     2.4050    -2.0390 h1         1 6LV       0.039533
@<TRIPOS>BOND
     1     1     2 1   
     2     1    26 1   
     3     1    27 1   
     4     2     3 2   
     5     2     6 1   
     6     3     4 1   
     7     4     5 1   
     8     4     7 1   
     9     5     6 2   
    10     5    14 1   
    11     7     8 2   
    12     7    15 1   
    13     8     9 1   
    14     9    10 ar  
    15     9    14 ar  
    16    10    11 ar  
    17    10    30 1   
    18    11    12 ar  
    19    11    31 1   
    20    12    13 ar  
    21    12    32 1   
    22    13    14 ar  
    23    13    33 1   
    24    15    16 1   
    25    15    28 1   
    26    15    29 1   
    27    16    17 ar  
    28    16    23 ar  
    29    17    18 ar  
    30    17    34 1   
    31    18    19 1   
    32    18    21 ar  
    33    19    20 1   
    34    20    37 1   
    35    20    38 1   
    36    20    39 1   
    37    21    22 ar  
    38    21    36 1   
    39    22    23 ar  
    40    22    24 1   
    41    23    35 1   
    42    24    25 1   
    43    25    40 1   
    44    25    41 1   
    45    25    42 1   
@<TRIPOS>SUBSTRUCTURE
     1 6LV         1 TEMP              0 ****  ****    0 ROOT
