@<TRIPOS>MOLECULE
6LV
   42    45     1     0     0
SMALL
bcc


@<TRIPOS>ATOM
      1 N1           4.8920     2.9710    -0.1500 nv         1 6LV      -0.878800
      2 C2           3.9990     1.9570    -0.0680 cc         1 6LV       0.735200
      3 N8           2.6920     2.1520    -0.0480 nd         1 6LV      -0.646100
      4 N9           2.2200     0.8880    -0.0300 na         1 6LV      -0.001800
      5 C4           3.2530     0.0050    -0.0340 cd         1 6LV       0.051700
      6 N3           4.3910     0.6570    -0.0580 nc         1 6LV      -0.435300
      7 C10          0.9040     0.5160    -0.0080 cc         1 6LV       0.587800
      8 N11          0.5810    -0.7280     0.0090 nd         1 6LV      -0.688000
      9 C12          1.5590    -1.6900     0.0070 ca         1 6LV       0.415600
     10 C13          1.1750    -3.0410     0.0270 ca         1 6LV      -0.170300
     11 C14          2.1300    -4.0310     0.0260 ca         1 6LV      -0.106000
     12 C7           3.4960    -3.7120     0.0050 ca         1 6LV      -0.137000
     13 C6           3.8970    -2.3970    -0.0150 ca         1 6LV      -0.072000
     14 C5           2.9340    -1.3810    -0.0140 ca         1 6LV      -0.142300
     15 C15         -0.1030     1.6220    -0.0020 c3         1 6LV      -0.080400
     16 C16         -1.5190     1.1230    -0.0070 ca         1 6LV      -0.002300
     17 C23         -2.1740     0.8920     1.1930 ca         1 6LV      -0.185000
     18 C22         -3.4890     0.4330     1.1860 ca         1 6LV       0.176600
     19 O24         -4.0550     0.2390     2.3920 os         1 6LV      -0.318900
     20 C25         -5.4020    -0.1850     2.4550 c3         1 6LV       0.127700
     21 C21         -4.1520     0.2030    -0.0180 ca         1 6LV      -0.300000
     22 C18         -3.4820     0.4450    -1.2170 ca         1 6LV       0.176600
     23 C17         -2.1670     0.9020    -1.2130 ca         1 6LV      -0.185000
     24 O19         -4.0430     0.2640    -2.4280 os         1 6LV      -0.318900
     25 C20         -5.3920    -0.1530    -2.5020 c3         1 6LV       0.127700
     26 H11          4.5630     3.8850     0.1150 hn         1 6LV       0.421300
     27 H12          5.8250     2.7650     0.1680 hn         1 6LV       0.421300
     28 H151         0.0830     2.2510     0.8730 hc         1 6LV       0.085200
     29 H152         0.0830     2.2650    -0.8670 hc         1 6LV       0.085200
     30 H13          0.1200    -3.2800     0.0440 ha         1 6LV       0.154000
     31 H14          1.8250    -5.0700     0.0420 ha         1 6LV       0.136000
     32 H7           4.2330    -4.5030     0.0050 ha         1 6LV       0.138000
     33 H6           4.9480    -2.1400    -0.0320 ha         1 6LV       0.155000
     34 H23         -1.6750     1.0710     2.1380 ha         1 6LV       0.147500
     35 H17         -1.6630     1.0900    -2.1530 ha         1 6LV       0.147500
     36 H21         -5.1720    -0.1560    -0.0230 ha         1 6LV       0.137000
     37 H251        -5.6520    -0.2600     3.5100 h1         1 6LV       0.039533
     38 H252        -6.0780     0.5330     1.9840 h1         1 6LV       0.039533
     39 H253        -5.5470    -1.1640     1.9900 h1         1 6LV       0.039533
     40 H201        -5.6380    -0.2150    -3.5590 h1         1 6LV       0.039533
     41 H202        -5.5440    -1.1370    -2.0490 h1         1 6LV       0.039533
     42 H203        -6.0670     0.5620    -2.0260 h1         1 6LV       0.039533
@<TRIPOS>BOND
     1     1     2 1   
     2     1    26 1   
     3     1    27 1   
     4     2     3 2   
     5     2     6 1   
     6     3     4 1   
     7     4     5 1   
     8     4     7 1   
     9     5     6 2   
    10     5    14 1   
    11     7     8 2   
    12     7    15 1   
    13     8     9 1   
    14     9    10 ar  
    15     9    14 ar  
    16    10    11 ar  
    17    10    30 1   
    18    11    12 ar  
    19    11    31 1   
    20    12    13 ar  
    21    12    32 1   
    22    13    14 ar  
    23    13    33 1   
    24    15    16 1   
    25    15    28 1   
    26    15    29 1   
    27    16    17 ar  
    28    16    23 ar  
    29    17    18 ar  
    30    17    34 1   
    31    18    19 1   
    32    18    21 ar  
    33    19    20 1   
    34    20    37 1   
    35    20    38 1   
    36    20    39 1   
    37    21    22 ar  
    38    21    36 1   
    39    22    23 ar  
    40    22    24 1   
    41    23    35 1   
    42    24    25 1   
    43    25    40 1   
    44    25    41 1   
    45    25    42 1   
@<TRIPOS>SUBSTRUCTURE
     1 6LV         1 TEMP              0 ****  ****    0 ROOT
