@<TRIPOS>MOLECULE
6LW
   20    20     1     0     0
SMALL
No Charge or Current Charge


@<TRIPOS>ATOM
      1 C3           0.7260     1.2510    -0.1790 c5         1 6LW       0.140300
      2 C2          -0.7540     1.2950     0.2680 c5         1 6LW       0.082000
      3 C1          -1.1820    -0.1510    -0.0150 c2         1 6LW       0.522600
      4 O3           1.5170     2.2870     0.4180 oh         1 6LW      -0.642000
      5 O4          -0.0820    -0.9750    -0.1180 os         1 6LW      -0.401600
      6 O1          -2.5470    -1.9560    -0.4230 oh         1 6LW      -0.486000
      7 C4           1.0650    -0.1870     0.3050 c5         1 6LW       0.156300
      8 N1          -2.4050    -0.5710    -0.1610 n2         1 6LW      -0.386700
      9 O2          -1.5000     2.3170    -0.4350 oh         1 6LW      -0.639000
     10 C5           2.3790    -0.7700    -0.2800 c3         1 6LW       0.166600
     11 O5           2.7150    -2.0250     0.3400 oh         1 6LW      -0.644000
     12 H1           0.7970     1.3030    -1.2750 h1         1 6LW       0.062700
     13 H2          -0.8150     1.4730     1.3510 h1         1 6LW       0.070700
     14 H3           1.0800     3.1380     0.1860 ho         1 6LW       0.464000
     15 H4          -3.5190    -2.1110    -0.5070 ho         1 6LW       0.459000
     16 H5           1.1280    -0.2130     1.4020 h1         1 6LW       0.089700
     17 H6          -2.4560     2.1610    -0.2520 ho         1 6LW       0.470000
     18 H7           2.2630    -0.8940    -1.3660 h1         1 6LW       0.033200
     19 H8           3.1870    -0.0450    -0.1140 h1         1 6LW       0.033200
     20 H9           3.5300    -2.3550    -0.1010 ho         1 6LW       0.448000
@<TRIPOS>BOND
     1     1     2 1   
     2     1     4 1   
     3     1     7 1   
     4     1    12 1   
     5     2     3 1   
     6     2     9 1   
     7     2    13 1   
     8     3     5 1   
     9     3     8 2   
    10     4    14 1   
    11     5     7 1   
    12     6     8 1   
    13     6    15 1   
    14     7    10 1   
    15     7    16 1   
    16     9    17 1   
    17    10    11 1   
    18    10    18 1   
    19    10    19 1   
    20    11    20 1   
@<TRIPOS>SUBSTRUCTURE
     1 6LW         1 TEMP              0 ****  ****    0 ROOT
