@<TRIPOS>MOLECULE
6LW
   20    20     1     0     0
SMALL
abcg2


@<TRIPOS>ATOM
      1 C3           0.6870     1.2390    -0.0870 c5         1 6LW       0.140300
      2 C2          -0.8030     1.2650     0.2380 c5         1 6LW       0.082000
      3 C1          -1.1550    -0.1840     0.0220 c2         1 6LW       0.522600
      4 O3           1.4640     2.2030     0.5570 oh         1 6LW      -0.642000
      5 O4          -0.0770    -0.9680     0.1580 os         1 6LW      -0.401600
      6 O1          -2.4020    -1.9480    -0.3980 oh         1 6LW      -0.486000
      7 C4           1.0820    -0.1530     0.4010 c5         1 6LW       0.156300
      8 N1          -2.3210    -0.5810    -0.2470 n2         1 6LW      -0.386700
      9 O2          -1.4970     2.1700    -0.5610 oh         1 6LW      -0.639000
     10 C5           2.2770    -0.7290    -0.3120 c3         1 6LW       0.166600
     11 O5           2.6090    -1.9630     0.2720 oh         1 6LW      -0.644000
     12 H1           0.8020     1.2880    -1.1810 h1         1 6LW       0.062700
     13 H2          -0.9160     1.4920     1.3100 h1         1 6LW       0.070700
     14 H3           1.3710     3.0380     0.0880 ho         1 6LW       0.464000
     15 H4          -3.3310    -2.0980    -0.5980 ho         1 6LW       0.459000
     16 H5           1.2670    -0.1230     1.4820 h1         1 6LW       0.089700
     17 H6          -2.4210     2.1780    -0.2880 ho         1 6LW       0.470000
     18 H7           2.0420    -0.8260    -1.3810 h1         1 6LW       0.033200
     19 H8           3.0910     0.0020    -0.2260 h1         1 6LW       0.033200
     20 H9           3.3590    -2.3280    -0.2060 ho         1 6LW       0.448000
@<TRIPOS>BOND
     1     1     2 1   
     2     1     4 1   
     3     1     7 1   
     4     1    12 1   
     5     2     3 1   
     6     2     9 1   
     7     2    13 1   
     8     3     5 1   
     9     3     8 2   
    10     4    14 1   
    11     5     7 1   
    12     6     8 1   
    13     6    15 1   
    14     7    10 1   
    15     7    16 1   
    16     9    17 1   
    17    10    11 1   
    18    10    18 1   
    19    10    19 1   
    20    11    20 1   
@<TRIPOS>SUBSTRUCTURE
     1 6LW         1 TEMP              0 ****  ****    0 ROOT
