@<TRIPOS>MOLECULE
6LX
   70    73     1     0     0
SMALL
bcc


@<TRIPOS>ATOM
      1 CAW          3.7580     1.0710    -0.8410 ca         1 6LX      -0.090000
      2 CAX          4.7900     0.7180    -1.6980 ca         1 6LX      -0.136000
      3 CAY          5.4650    -0.4910    -1.5540 ca         1 6LX      -0.059300
      4 CAZ          6.5930    -0.8660    -2.4690 c3         1 6LX      -0.050800
      5 CAO          5.0710    -1.3450    -0.5240 ca         1 6LX      -0.136000
      6 CAN          4.0280    -1.0080     0.3240 ca         1 6LX      -0.090000
      7 CAM          3.3570     0.2020     0.1660 ca         1 6LX      -0.148600
      8 CAL          2.2970     0.6500     1.1200 c          1 6LX       0.691700
      9 OAV          2.5090     1.6310     1.8180 o          1 6LX      -0.593100
     10 NAK          1.1410    -0.0640     1.1740 n          1 6LX      -0.467800
     11 CAU          0.8150    -1.1050     0.2080 c3         1 6LX       0.104000
     12 CBC          0.8510    -2.5340     0.7310 c3         1 6LX      -0.098400
     13 CBD          0.5520    -3.5180    -0.3920 c3         1 6LX       0.148800
     14 NBE          0.5980    -4.8870     0.0950 n8         1 6LX      -0.883800
     15 CAJ          0.1330     0.3470     2.1520 c3         1 6LX       0.148900
     16 CAB          0.0090    -0.5690     3.3870 c3         1 6LX      -0.062700
     17 CAA          1.3830    -0.8800     3.9710 c3         1 6LX      -0.091600
     18 CAC         -0.8570     0.1190     4.4410 c3         1 6LX      -0.091600
     19 CAI         -1.1770     0.5990     1.4400 cc         1 6LX       0.125900
     20 OAH         -2.0240    -0.4380     1.5500 os         1 6LX      -0.212200
     21 CAG         -3.2240    -0.4310     0.9430 ca         1 6LX       0.159100
     22 CAF         -4.0180    -1.5600     1.1190 ca         1 6LX      -0.161000
     23 CAE         -5.2490    -1.5790     0.5010 ca         1 6LX       0.076400
     24 CLA         -6.2610    -2.9630     0.6950 cl         1 6LX      -0.091400
     25 CAP         -5.7020    -0.5120    -0.2790 ca         1 6LX      -0.161000
     26 CAQ         -4.8940     0.5910    -0.4330 ca         1 6LX      -0.032000
     27 CAR         -3.6360     0.6510     0.1780 ca         1 6LX      -0.232600
     28 CAS         -2.7500     1.8080     0.0300 c          1 6LX       0.589900
     29 OBA         -3.0620     2.7850    -0.6330 o          1 6LX      -0.525100
     30 CAT         -1.4690     1.7080     0.7240 cd         1 6LX      -0.262400
     31 CBB         -0.5220     2.8590     0.5740 c3         1 6LX       0.024100
     32 CBG          0.2620     2.8840    -0.7200 ca         1 6LX      -0.059300
     33 CBF          0.1870     1.8820    -1.6800 ca         1 6LX      -0.125500
     34 CBI          0.9250     1.9640    -2.8560 ca         1 6LX      -0.128000
     35 CBJ          1.7470     3.0550    -3.0930 ca         1 6LX      -0.137000
     36 CBK          1.8330     4.0620    -2.1380 ca         1 6LX      -0.128000
     37 CBH          1.1000     3.9730    -0.9650 ca         1 6LX      -0.125500
     38 HAN          3.7490    -1.6920     1.1150 ha         1 6LX       0.144000
     39 HAO          5.5830    -2.2880    -0.3810 ha         1 6LX       0.133000
     40 HAZ1         7.5360    -0.9350    -1.9240 hc         1 6LX       0.044700
     41 HAZ2         6.4210    -1.8380    -2.9320 hc         1 6LX       0.044700
     42 HAZ3         6.7220    -0.1330    -3.2640 hc         1 6LX       0.044700
     43 HAX          5.0790     1.4010    -2.4880 ha         1 6LX       0.133000
     44 HAW          3.2540     2.0200    -0.9730 ha         1 6LX       0.144000
     45 HAU1        -0.1730    -0.8980    -0.2110 h1         1 6LX       0.052200
     46 HAU2         1.4980    -1.0160    -0.6340 h1         1 6LX       0.052200
     47 HAJ          0.4680     1.3100     2.5370 h1         1 6LX       0.106700
     48 HBC1         1.8310    -2.7630     1.1540 hc         1 6LX       0.055200
     49 HBC2         0.1200    -2.6720     1.5310 hc         1 6LX       0.055200
     50 HBD1        -0.4090    -3.2470    -0.8550 h1         1 6LX       0.028700
     51 HBD2         1.3100    -3.4060    -1.1730 h1         1 6LX       0.028700
     52 HBE1        -0.1570    -5.0340     0.7540 hn         1 6LX       0.337800
     53 HBE2         0.4120    -5.5200    -0.6720 hn         1 6LX       0.337800
     54 HAB         -0.4650    -1.5130     3.1120 hc         1 6LX       0.058700
     55 HAA1         1.9030     0.0310     4.2730 hc         1 6LX       0.039867
     56 HAA2         1.2730    -1.5070     4.8570 hc         1 6LX       0.039867
     57 HAA3         2.0220    -1.4180     3.2710 hc         1 6LX       0.039867
     58 HAC1        -1.8660     0.3360     4.0910 hc         1 6LX       0.039867
     59 HAC2        -0.9510    -0.5140     5.3240 hc         1 6LX       0.039867
     60 HAC3        -0.4030     1.0620     4.7550 hc         1 6LX       0.039867
     61 HAF         -3.6700    -2.3880     1.7220 ha         1 6LX       0.166000
     62 HAP         -6.6710    -0.5550    -0.7540 ha         1 6LX       0.157000
     63 HAQ         -5.2310     1.4250    -1.0340 ha         1 6LX       0.162000
     64 HBB1        -1.0980     3.7860     0.6410 hc         1 6LX       0.070700
     65 HBB2         0.1830     2.8970     1.4030 hc         1 6LX       0.070700
     66 HBH          1.1750     4.7620    -0.2260 ha         1 6LX       0.128500
     67 HBF         -0.4580     1.0260    -1.5280 ha         1 6LX       0.128500
     68 HBK          2.4750     4.9170    -2.3070 ha         1 6LX       0.128500
     69 HBJ          2.3210     3.1180    -4.0090 ha         1 6LX       0.129000
     70 HBI          0.8530     1.1690    -3.5870 ha         1 6LX       0.128500
@<TRIPOS>BOND
     1     1     2 ar  
     2     1     7 ar  
     3     1    44 1   
     4     2     3 ar  
     5     2    43 1   
     6     3     4 1   
     7     3     5 ar  
     8     4    40 1   
     9     4    41 1   
    10     4    42 1   
    11     5     6 ar  
    12     5    39 1   
    13     6     7 ar  
    14     6    38 1   
    15     7     8 1   
    16     8     9 2   
    17     8    10 1   
    18    10    11 1   
    19    10    15 1   
    20    11    12 1   
    21    11    45 1   
    22    11    46 1   
    23    12    13 1   
    24    12    48 1   
    25    12    49 1   
    26    13    14 1   
    27    13    50 1   
    28    13    51 1   
    29    14    52 1   
    30    14    53 1   
    31    15    16 1   
    32    15    19 1   
    33    15    47 1   
    34    16    17 1   
    35    16    18 1   
    36    16    54 1   
    37    17    55 1   
    38    17    56 1   
    39    17    57 1   
    40    18    58 1   
    41    18    59 1   
    42    18    60 1   
    43    19    20 1   
    44    19    30 2   
    45    20    21 1   
    46    21    22 ar  
    47    21    27 ar  
    48    22    23 ar  
    49    22    61 1   
    50    23    24 1   
    51    23    25 ar  
    52    25    26 ar  
    53    25    62 1   
    54    26    27 ar  
    55    26    63 1   
    56    27    28 1   
    57    28    29 2   
    58    28    30 1   
    59    30    31 1   
    60    31    32 1   
    61    31    64 1   
    62    31    65 1   
    63    32    33 ar  
    64    32    37 ar  
    65    33    34 ar  
    66    33    67 1   
    67    34    35 ar  
    68    34    70 1   
    69    35    36 ar  
    70    35    69 1   
    71    36    37 ar  
    72    36    68 1   
    73    37    66 1   
@<TRIPOS>SUBSTRUCTURE
     1 6LX         1 TEMP              0 ****  ****    0 ROOT
