@<TRIPOS>MOLECULE
6LX
   70    73     1     0     0
SMALL
No Charge or Current Charge


@<TRIPOS>ATOM
      1 CAW          4.4400     1.4450    -0.2880 ca         1 6LX      -0.072000
      2 CAX          5.6110     1.0880    -0.9770 ca         1 6LX      -0.118000
      3 CAY          5.9960    -0.2610    -1.0740 ca         1 6LX      -0.059300
      4 CAZ          7.2660    -0.6470    -1.8160 c3         1 6LX      -0.050800
      5 CAO          5.2060    -1.2450    -0.4550 ca         1 6LX      -0.118000
      6 CAN          4.0340    -0.8900     0.2330 ca         1 6LX      -0.072000
      7 CAM          3.6180     0.4590     0.2990 ca         1 6LX      -0.148600
      8 CAL          2.3710     0.8860     1.0470 c          1 6LX       0.624700
      9 OAV          2.4080     1.9090     1.7210 o          1 6LX      -0.593100
     10 NAK          1.2140     0.0520     1.0430 n          1 6LX      -0.400800
     11 CAU          0.9220    -0.8270    -0.1300 c3         1 6LX       0.104000
     12 CBC          0.7040    -2.3190     0.2090 c3         1 6LX      -0.098400
     13 CBD          0.6550    -3.2000    -1.0530 c3         1 6LX       0.148800
     14 NBE          0.4490    -4.6190    -0.7120 n8         1 6LX      -0.994200
     15 CAJ          0.0870     0.3600     1.9920 c3         1 6LX       0.148900
     16 CAB          0.0700    -0.5870     3.2410 c3         1 6LX      -0.062700
     17 CAA          1.4710    -0.7590     3.8810 c3         1 6LX      -0.091600
     18 CAC         -0.9450    -0.1140     4.3130 c3         1 6LX      -0.091600
     19 CAI         -1.2670     0.5050     1.2970 cc         1 6LX       0.125900
     20 OAH         -2.0380    -0.6500     1.2960 os         1 6LX      -0.212200
     21 CAG         -3.4030    -0.4840     1.1870 ca         1 6LX       0.159100
     22 CAF         -4.2230    -1.5150     1.6720 ca         1 6LX      -0.143000
     23 CAE         -5.6160    -1.4370     1.5320 ca         1 6LX       0.168000
     24 ClA         -6.6350    -2.7290     2.1530 cl         1 6LX      -0.183000
     25 CAP         -6.1980    -0.3340     0.8900 ca         1 6LX      -0.143000
     26 CAQ         -5.3810     0.6920     0.3850 ca         1 6LX      -0.014000
     27 CAR         -3.9800     0.6090     0.5350 ca         1 6LX      -0.232600
     28 CAS         -3.0800     1.6590     0.0220 c          1 6LX       0.589900
     29 OBA         -3.4920     2.5400    -0.7230 o          1 6LX      -0.525100
     30 CAT         -1.6900     1.5810     0.5170 cd         1 6LX      -0.262400
     31 CBB         -0.8000     2.7670     0.1600 c3         1 6LX       0.024100
     32 CBG          0.0790     2.5590    -1.0740 ca         1 6LX      -0.059300
     33 CBF         -0.3340     1.7350    -2.1440 ca         1 6LX      -0.107500
     34 CBI          0.4960     1.5480    -3.2620 ca         1 6LX      -0.110000
     35 CBJ          1.7400     2.1950    -3.3320 ca         1 6LX      -0.119000
     36 CBK          2.1500     3.0330    -2.2840 ca         1 6LX      -0.110000
     37 CBH          1.3240     3.2130    -1.1610 ca         1 6LX      -0.107500
     38 HAN          3.4670    -1.6660     0.7360 ha         1 6LX       0.126000
     39 HAO          5.5060    -2.2900    -0.4980 ha         1 6LX       0.115000
     40 HAZ1         8.1290    -0.6430    -1.1400 hc         1 6LX       0.044700
     41 HAZ2         7.1850    -1.6500    -2.2520 hc         1 6LX       0.044700
     42 HAZ3         7.4790     0.0510    -2.6350 hc         1 6LX       0.044700
     43 HAX          6.2220     1.8640    -1.4340 ha         1 6LX       0.115000
     44 HAW          4.1640     2.4950    -0.2180 ha         1 6LX       0.126000
     45 HAU1         0.0270    -0.4600    -0.6450 h1         1 6LX       0.052200
     46 HAU2         1.7280    -0.7450    -0.8680 h1         1 6LX       0.052200
     47 HAJ          0.2670     1.3520     2.4230 h1         1 6LX       0.106700
     48 HBC1         1.5030    -2.6750     0.8680 hc         1 6LX       0.055200
     49 HBC2        -0.2340    -2.4370     0.7590 hc         1 6LX       0.055200
     50 HBD1        -0.1660    -2.8690    -1.7050 h1         1 6LX       0.028700
     51 HBD2         1.6000    -3.1050    -1.6070 h1         1 6LX       0.028700
     52 HBE1        -0.4710    -4.7260    -0.2710 hn         1 6LX       0.393000
     53 HBE2         0.3650    -5.1630    -1.5800 hn         1 6LX       0.393000
     54 HAB         -0.2460    -1.5840     2.9150 hc         1 6LX       0.058700
     55 HAA1         1.8820     0.2100     4.1880 hc         1 6LX       0.039867
     56 HAA2         1.4150    -1.4020     4.7680 hc         1 6LX       0.039867
     57 HAA3         2.1730    -1.2280     3.1820 hc         1 6LX       0.039867
     58 HAC1        -1.9650    -0.0710     3.9130 hc         1 6LX       0.039867
     59 HAC2        -0.9550    -0.8030     5.1660 hc         1 6LX       0.039867
     60 HAC3        -0.6830     0.8840     4.6850 hc         1 6LX       0.039867
     61 HAF         -3.7760    -2.3780     2.1560 ha         1 6LX       0.148000
     62 HAP         -7.2780    -0.2760     0.7800 ha         1 6LX       0.139000
     63 HAQ         -5.8370     1.5430    -0.1180 ha         1 6LX       0.144000
     64 HBB1        -1.3960     3.6760     0.0140 hc         1 6LX       0.070700
     65 HBB2        -0.1640     3.0160     1.0170 hc         1 6LX       0.070700
     66 HBH          1.6560     3.8630    -0.3540 ha         1 6LX       0.110500
     67 HBF         -1.2950     1.2300    -2.1140 ha         1 6LX       0.110500
     68 HBK          3.1100     3.5420    -2.3400 ha         1 6LX       0.110500
     69 HBJ          2.3820     2.0510    -4.1980 ha         1 6LX       0.111000
     70 HBI          0.1720     0.9040    -4.0770 ha         1 6LX       0.110500
@<TRIPOS>BOND
     1     1     2 ar  
     2     1     7 ar  
     3     1    44 1   
     4     2     3 ar  
     5     2    43 1   
     6     3     4 1   
     7     3     5 ar  
     8     4    40 1   
     9     4    41 1   
    10     4    42 1   
    11     5     6 ar  
    12     5    39 1   
    13     6     7 ar  
    14     6    38 1   
    15     7     8 1   
    16     8     9 2   
    17     8    10 1   
    18    10    11 1   
    19    10    15 1   
    20    11    12 1   
    21    11    45 1   
    22    11    46 1   
    23    12    13 1   
    24    12    48 1   
    25    12    49 1   
    26    13    14 1   
    27    13    50 1   
    28    13    51 1   
    29    14    52 1   
    30    14    53 1   
    31    15    16 1   
    32    15    19 1   
    33    15    47 1   
    34    16    17 1   
    35    16    18 1   
    36    16    54 1   
    37    17    55 1   
    38    17    56 1   
    39    17    57 1   
    40    18    58 1   
    41    18    59 1   
    42    18    60 1   
    43    19    20 1   
    44    19    30 2   
    45    20    21 1   
    46    21    22 ar  
    47    21    27 ar  
    48    22    23 ar  
    49    22    61 1   
    50    23    24 1   
    51    23    25 ar  
    52    25    26 ar  
    53    25    62 1   
    54    26    27 ar  
    55    26    63 1   
    56    27    28 1   
    57    28    29 2   
    58    28    30 1   
    59    30    31 1   
    60    31    32 1   
    61    31    64 1   
    62    31    65 1   
    63    32    33 ar  
    64    32    37 ar  
    65    33    34 ar  
    66    33    67 1   
    67    34    35 ar  
    68    34    70 1   
    69    35    36 ar  
    70    35    69 1   
    71    36    37 ar  
    72    36    68 1   
    73    37    66 1   
@<TRIPOS>SUBSTRUCTURE
     1 6LX         1 TEMP              0 ****  ****    0 ROOT
