@<TRIPOS>MOLECULE
6LY
   21    21     1     0     0
SMALL
No Charge or Current Charge


@<TRIPOS>ATOM
      1 C4           0.4560     0.9690     0.5950 ca         1 6LY      -0.082500
      2 C5           1.2740     0.0260    -0.0470 ca         1 6LY      -0.016900
      3 C6           0.6980    -1.0110    -0.7980 ca         1 6LY      -0.082500
      4 C7          -0.7000    -1.1070    -0.9050 ca         1 6LY      -0.101500
      5 Br           3.1770     0.1570     0.0980 br         1 6LY      -0.099100
      6 C3          -0.9430     0.8730     0.4890 ca         1 6LY      -0.101500
      7 C2          -1.5350    -0.1690    -0.2590 ca         1 6LY      -0.100300
      8 C1          -3.0550    -0.2910    -0.3910 c3         1 6LY       0.210600
      9 O           -3.5410     0.7330    -1.2770 oh         1 6LY      -0.644000
     10 C           -3.7990    -0.2150     0.9810 c3         1 6LY       0.116800
     11 N           -5.2660    -0.4340     0.8730 n8         1 6LY      -0.993200
     12 H1           0.9030     1.7740     1.1740 ha         1 6LY       0.130000
     13 H2           1.3330    -1.7390    -1.2980 ha         1 6LY       0.130000
     14 H3          -1.1350    -1.9130    -1.4920 ha         1 6LY       0.117000
     15 H4          -1.5600     1.6160     0.9900 ha         1 6LY       0.117000
     16 H5          -3.2800    -1.2800    -0.8160 h1         1 6LY       0.097700
     17 H6          -3.1150     1.5700    -0.9930 ho         1 6LY       0.435000
     18 H7          -3.3830    -0.9710     1.6620 h1         1 6LY       0.035700
     19 H8          -3.6340     0.7720     1.4330 h1         1 6LY       0.035700
     20 H9          -5.7130    -0.1880     1.7650 hn         1 6LY       0.398500
     21 H10         -5.6460     0.2540     0.2110 hn         1 6LY       0.398500
@<TRIPOS>BOND
     1     1     2 ar  
     2     1     6 ar  
     3     1    12 1   
     4     2     3 ar  
     5     2     5 1   
     6     3     4 ar  
     7     3    13 1   
     8     4     7 ar  
     9     4    14 1   
    10     6     7 ar  
    11     6    15 1   
    12     7     8 1   
    13     8     9 1   
    14     8    10 1   
    15     8    16 1   
    16     9    17 1   
    17    10    11 1   
    18    10    18 1   
    19    10    19 1   
    20    11    20 1   
    21    11    21 1   
@<TRIPOS>SUBSTRUCTURE
     1 6LY         1 TEMP              0 ****  ****    0 ROOT
