@<TRIPOS>MOLECULE
6LY
   21    21     1     0     0
SMALL
bcc


@<TRIPOS>ATOM
      1 C4           0.5610     1.1520     0.1590 ca         1 6LY      -0.100500
      2 C5           1.2230    -0.0550    -0.0000 ca         1 6LY      -0.016900
      3 C6           0.5290    -1.2120    -0.3240 ca         1 6LY      -0.100500
      4 C7          -0.8460    -1.1460    -0.4820 ca         1 6LY      -0.119500
      5 BR           3.0990    -0.1250     0.2180 br         1 6LY      -0.099100
      6 C3          -0.8180     1.1960    -0.0090 ca         1 6LY      -0.119500
      7 C2          -1.5390     0.0510    -0.3250 ca         1 6LY      -0.100300
      8 C1          -3.0460     0.0590    -0.4670 c3         1 6LY       0.187400
      9 O           -3.5590     1.3180    -0.8350 oh         1 6LY      -0.581800
     10 C           -3.7000    -0.4620     0.8120 c3         1 6LY       0.116800
     11 N           -5.1270    -0.6500     0.6250 n8         1 6LY      -0.882800
     12 H1           1.0990     2.0560     0.4080 ha         1 6LY       0.148000
     13 H2           1.0430    -2.1540    -0.4600 ha         1 6LY       0.148000
     14 H3          -1.3840    -2.0500    -0.7420 ha         1 6LY       0.135000
     15 H4          -1.3130     2.1510     0.1110 ha         1 6LY       0.135000
     16 H5          -3.3170    -0.6220    -1.2800 h1         1 6LY       0.097700
     17 H6          -3.5770     1.8910    -0.0600 ho         1 6LY       0.396000
     18 H7          -3.2520    -1.4260     1.0620 h1         1 6LY       0.035700
     19 H8          -3.4360     0.2230     1.6360 h1         1 6LY       0.035700
     20 H9          -5.5320    -1.0140     1.4770 hn         1 6LY       0.343300
     21 H10         -5.5730     0.2450     0.4710 hn         1 6LY       0.343300
@<TRIPOS>BOND
     1     1     2 ar  
     2     1     6 ar  
     3     1    12 1   
     4     2     3 ar  
     5     2     5 1   
     6     3     4 ar  
     7     3    13 1   
     8     4     7 ar  
     9     4    14 1   
    10     6     7 ar  
    11     6    15 1   
    12     7     8 1   
    13     8     9 1   
    14     8    10 1   
    15     8    16 1   
    16     9    17 1   
    17    10    11 1   
    18    10    18 1   
    19    10    19 1   
    20    11    20 1   
    21    11    21 1   
@<TRIPOS>SUBSTRUCTURE
     1 6LY         1 TEMP              0 ****  ****    0 ROOT
