@<TRIPOS>MOLECULE
6LZ
   19    19     1     0     0
SMALL
abcg2


@<TRIPOS>ATOM
      1 C4           1.6710     1.2600     0.0210 ca         1 6LZ      -0.167500
      2 C5           2.4640     0.1280     0.0020 ca         1 6LZ       0.198000
      3 C6           1.9300    -1.1490    -0.0060 ca         1 6LZ      -0.167500
      4 C7           0.5540    -1.2880     0.0080 ca         1 6LZ      -0.039000
      5 F            3.7930     0.2710    -0.0100 f          1 6LZ      -0.172000
      6 C3           0.2950     1.1010     0.0320 ca         1 6LZ      -0.039000
      7 C2          -0.2820    -0.1690     0.0260 ca         1 6LZ      -0.193600
      8 C1          -1.7560    -0.3730     0.0330 c          1 6LZ       0.579700
      9 O           -2.2270    -1.4900     0.0520 o          1 6LZ      -0.502100
     10 C           -2.6440     0.8510     0.0400 c3         1 6LZ       0.055800
     11 N           -4.0400     0.5030    -0.0640 n8         1 6LZ      -0.980200
     12 H1           2.1180     2.2450     0.0270 ha         1 6LZ       0.136500
     13 H2           2.5790    -2.0140    -0.0220 ha         1 6LZ       0.136500
     14 H3           0.1260    -2.2810     0.0020 ha         1 6LZ       0.128000
     15 H4          -0.3200     1.9900     0.0480 ha         1 6LZ       0.128000
     16 H5          -2.3800     1.4410     0.9320 h1         1 6LZ       0.046700
     17 H6          -2.3710     1.4800    -0.8120 h1         1 6LZ       0.046700
     18 H7          -4.3510     0.0500     0.7850 hn         1 6LZ       0.402500
     19 H8          -4.5830     1.3530    -0.1440 hn         1 6LZ       0.402500
@<TRIPOS>BOND
     1     1     2 ar  
     2     1     6 ar  
     3     1    12 1   
     4     2     3 ar  
     5     2     5 1   
     6     3     4 ar  
     7     3    13 1   
     8     4     7 ar  
     9     4    14 1   
    10     6     7 ar  
    11     6    15 1   
    12     7     8 1   
    13     8     9 2   
    14     8    10 1   
    15    10    11 1   
    16    10    16 1   
    17    10    17 1   
    18    11    18 1   
    19    11    19 1   
@<TRIPOS>SUBSTRUCTURE
     1 6LZ         1 TEMP              0 ****  ****    0 ROOT
