@<TRIPOS>MOLECULE
6LZ
   19    19     1     0     0
SMALL
No Charge or Current Charge


@<TRIPOS>ATOM
      1 C4           1.7130     1.2560     0.0240 ca         1 6LZ      -0.167500
      2 C5           2.5510     0.1350    -0.0170 ca         1 6LZ       0.198000
      3 C6           2.0040    -1.1550    -0.0260 ca         1 6LZ      -0.167500
      4 C7           0.6090    -1.3260     0.0060 ca         1 6LZ      -0.039000
      5 F            3.8920     0.2970    -0.0470 f          1 6LZ      -0.172000
      6 C3           0.3170     1.0930     0.0550 ca         1 6LZ      -0.039000
      7 C2          -0.2530    -0.2050     0.0450 ca         1 6LZ      -0.193600
      8 C1          -1.7570    -0.4120     0.0790 c          1 6LZ       0.579700
      9 O           -2.2240    -1.5450     0.1690 o          1 6LZ      -0.502100
     10 C           -2.6990     0.8420     0.0080 c3         1 6LZ       0.055800
     11 N           -4.1830     0.6060    -0.1220 n8         1 6LZ      -0.980200
     12 H1           2.1460     2.2530     0.0330 ha         1 6LZ       0.136500
     13 H2           2.6610    -2.0200    -0.0570 ha         1 6LZ       0.136500
     14 H3           0.2030    -2.3370    -0.0030 ha         1 6LZ       0.128000
     15 H4          -0.3060     1.9840     0.0920 ha         1 6LZ       0.128000
     16 H5          -2.5190     1.4320     0.9170 h1         1 6LZ       0.046700
     17 H6          -2.3750     1.4470    -0.8500 h1         1 6LZ       0.046700
     18 H7          -4.5170     0.0660     0.6880 hn         1 6LZ       0.402500
     19 H8          -4.6860     1.5000    -0.0440 hn         1 6LZ       0.402500
@<TRIPOS>BOND
     1     1     2 ar  
     2     1     6 ar  
     3     1    12 1   
     4     2     3 ar  
     5     2     5 1   
     6     3     4 ar  
     7     3    13 1   
     8     4     7 ar  
     9     4    14 1   
    10     6     7 ar  
    11     6    15 1   
    12     7     8 1   
    13     8     9 2   
    14     8    10 1   
    15    10    11 1   
    16    10    16 1   
    17    10    17 1   
    18    11    18 1   
    19    11    19 1   
@<TRIPOS>SUBSTRUCTURE
     1 6LZ         1 TEMP              0 ****  ****    0 ROOT
