@<TRIPOS>MOLECULE
6M1
   19    19     1     0     0
SMALL
bcc


@<TRIPOS>ATOM
      1 OAC          2.2240    -0.8540     0.7290 o          1 6M1      -0.834300
      2 CAH          1.6930    -0.0310    -0.0550 c          1 6M1       0.932200
      3 OAD          2.2970     0.7300    -0.8290 o          1 6M1      -0.834300
      4 CAK          0.1720     0.0220    -0.0570 ca         1 6M1      -0.174600
      5 CAI         -0.5130     1.2450    -0.0500 ca         1 6M1      -0.023300
      6 CAA          0.2050     2.5680    -0.0190 c3         1 6M1      -0.030800
      7 CAF         -1.9080     1.2610    -0.0510 ca         1 6M1      -0.206000
      8 CAE         -2.6240     0.0740    -0.0830 ca         1 6M1      -0.119000
      9 CAG         -1.9620    -1.1380    -0.0930 ca         1 6M1      -0.238000
     10 CAJ         -0.5630    -1.1830    -0.0610 ca         1 6M1       0.167600
     11 NAB          0.0760    -2.4080    -0.1050 nv         1 6M1      -0.829200
     12 H2           0.6990     2.7790    -0.9670 hc         1 6M1       0.033700
     13 H3          -0.5020     3.3750     0.1780 hc         1 6M1       0.033700
     14 H4           0.9740     2.6050     0.7520 hc         1 6M1       0.033700
     15 H5          -2.4320     2.2090    -0.0250 ha         1 6M1       0.101000
     16 H6          -3.7070     0.0930    -0.0910 ha         1 6M1       0.095000
     17 H7          -2.5250    -2.0650    -0.1090 ha         1 6M1       0.100000
     18 H8          -0.4900    -3.1870     0.1950 hn         1 6M1       0.395800
     19 H9           0.9870    -2.3940     0.3320 hn         1 6M1       0.395800
@<TRIPOS>BOND
     1     1     2 1   
     2     2     3 1   
     3     2     4 1   
     4     4     5 ar  
     5     4    10 ar  
     6     5     6 1   
     7     5     7 ar  
     8     6    12 1   
     9     6    13 1   
    10     6    14 1   
    11     7     8 ar  
    12     7    15 1   
    13     8     9 ar  
    14     8    16 1   
    15     9    10 ar  
    16     9    17 1   
    17    10    11 1   
    18    11    18 1   
    19    11    19 1   
@<TRIPOS>SUBSTRUCTURE
     1 6M1         1 TEMP              0 ****  ****    0 ROOT
