@<TRIPOS>MOLECULE
6M1
   19    19     1     0     0
SMALL
No Charge or Current Charge


@<TRIPOS>ATOM
      1 OAC          2.2400    -0.4150     0.9640 o          1 6M1      -0.729000
      2 CAH          1.6720    -0.0150    -0.0430 c          1 6M1       0.721600
      3 OAD          2.2620     0.3610    -1.0460 o          1 6M1      -0.729000
      4 CAK          0.1730     0.0210    -0.0450 ca         1 6M1      -0.174600
      5 CAI         -0.5190     1.2590    -0.0300 ca         1 6M1      -0.023300
      6 CAA          0.2310     2.5870     0.0180 c3         1 6M1      -0.030800
      7 CAF         -1.9270     1.2670    -0.0510 ca         1 6M1      -0.188000
      8 CAE         -2.6470     0.0650    -0.0830 ca         1 6M1      -0.101000
      9 CAG         -1.9600    -1.1570    -0.0910 ca         1 6M1      -0.220000
     10 CAJ         -0.5580    -1.1840    -0.0700 ca         1 6M1       0.306000
     11 NAB          0.0580    -2.4070    -0.0750 nv         1 6M1      -1.078000
     12 H2           0.7200     2.7980    -0.9400 hc         1 6M1       0.033700
     13 H3          -0.4420     3.4260     0.2350 hc         1 6M1       0.033700
     14 H4           1.0010     2.5820     0.7990 hc         1 6M1       0.033700
     15 H5          -2.4680     2.2110    -0.0410 ha         1 6M1       0.083000
     16 H6          -3.7350     0.0810    -0.1000 ha         1 6M1       0.077000
     17 H7          -2.5260    -2.0850    -0.1140 ha         1 6M1       0.082000
     18 H8          -0.5070    -3.2370     0.0930 hn         1 6M1       0.451000
     19 H9           1.0340    -2.4560     0.2120 hn         1 6M1       0.451000
@<TRIPOS>BOND
     1     1     2 1   
     2     2     3 1   
     3     2     4 1   
     4     4     5 ar  
     5     4    10 ar  
     6     5     6 1   
     7     5     7 ar  
     8     6    12 1   
     9     6    13 1   
    10     6    14 1   
    11     7     8 ar  
    12     7    15 1   
    13     8     9 ar  
    14     8    16 1   
    15     9    10 ar  
    16     9    17 1   
    17    10    11 1   
    18    11    18 1   
    19    11    19 1   
@<TRIPOS>SUBSTRUCTURE
     1 6M1         1 TEMP              0 ****  ****    0 ROOT
