@<TRIPOS>MOLECULE
6M3
   44    47     1     0     0
SMALL
bcc


@<TRIPOS>ATOM
      1 C1           3.4420    -0.6990    -0.1640 cc         1 6M3      -0.218900
      2 C3           2.3030    -0.8920     1.7060 cc         1 6M3       0.400400
      3 C11         -1.8160     1.9080     0.1630 ca         1 6M3      -0.083000
      4 C12         -1.2230     0.6590     0.0210 cp         1 6M3      -0.017000
      5 C13         -2.1430    -0.5060     0.0030 cp         1 6M3      -0.032000
      6 C14         -1.6740     4.3320     0.3820 cg         1 6M3       0.232800
      7 C16         -2.3000    -1.3430     1.1020 ca         1 6M3       0.035400
      8 C17         -3.2040    -2.3970     1.0980 ca         1 6M3      -0.121000
      9 C18         -3.9890    -2.6110    -0.0220 ca         1 6M3      -0.113000
     10 C19         -3.8740    -1.7700    -1.1220 ca         1 6M3      -0.127000
     11 C20         -2.9580    -0.7330    -1.1040 ca         1 6M3      -0.089000
     12 C21          3.8130    -0.5900    -1.6050 c3         1 6M3       0.000900
     13 C22          2.9660     0.3990    -2.4010 c3         1 6M3      -0.070400
     14 C23          1.5540    -0.1070    -2.7210 c3         1 6M3      -0.112400
     15 C24          0.9880    -1.1650    -1.7790 c3         1 6M3       0.149100
     16 N2           2.1700    -0.8070     0.3580 na         1 6M3      -0.192900
     17 N4           3.5490    -0.8520     2.0840 nd         1 6M3      -0.668000
     18 C5           4.2650    -0.7280     0.9280 cd         1 6M3       0.295200
     19 C6           0.8700    -0.7650    -0.2960 c3         1 6M3       0.104300
     20 C7           0.1740     0.5650    -0.0700 ca         1 6M3      -0.055300
     21 C8           0.9310     1.7280     0.0460 ca         1 6M3      -0.123000
     22 C9           0.3450     2.9710     0.1920 ca         1 6M3      -0.088000
     23 C10         -1.0420     3.0620     0.2370 ca         1 6M3      -0.012000
     24 N15         -2.1840     5.3590     0.4980 n1         1 6M3      -0.357800
     25 O25         -0.3090    -1.5320    -2.1720 oh         1 6M3      -0.594800
     26 CL1         -1.3800    -1.0550     2.5460 cl         1 6M3      -0.113400
     27 H1           1.4460    -0.9800     2.3570 h5         1 6M3       0.061100
     28 H2          -2.8930     1.9800     0.2320 ha         1 6M3       0.149000
     29 H3          -3.3000    -3.0330     1.9680 ha         1 6M3       0.150000
     30 H4          -4.6980    -3.4280    -0.0290 ha         1 6M3       0.138000
     31 H5          -4.4950    -1.9260    -1.9940 ha         1 6M3       0.137000
     32 H6          -2.8620    -0.0820    -1.9620 ha         1 6M3       0.138000
     33 H7           4.8570    -0.2730    -1.6330 hc         1 6M3       0.055200
     34 H8           3.7910    -1.5730    -2.0870 hc         1 6M3       0.055200
     35 H9           2.9240     1.3450    -1.8590 hc         1 6M3       0.048700
     36 H10          3.4760     0.6200    -3.3390 hc         1 6M3       0.048700
     37 H11          0.8570     0.7320    -2.7820 hc         1 6M3       0.048200
     38 H12          1.5670    -0.5660    -3.7140 hc         1 6M3       0.048200
     39 H13          1.6470    -2.0450    -1.7990 h1         1 6M3       0.049700
     40 H14          5.3440    -0.6680     0.9250 h4         1 6M3       0.035100
     41 H15          0.2730    -1.5550     0.1660 h1         1 6M3       0.094700
     42 H16          2.0110     1.6760     0.0320 ha         1 6M3       0.151000
     43 H17          0.9590     3.8560     0.2730 ha         1 6M3       0.148000
     44 H18         -0.3240    -1.6240    -3.1300 ho         1 6M3       0.412000
@<TRIPOS>BOND
     1     1    12 1   
     2     1    16 1   
     3     1    18 2   
     4     2    16 1   
     5     2    17 2   
     6     2    27 1   
     7     3     4 ar  
     8     3    23 ar  
     9     3    28 1   
    10     4     5 1   
    11     4    20 ar  
    12     5     7 ar  
    13     5    11 ar  
    14     6    23 1   
    15     6    24 3   
    16     7     8 ar  
    17     7    26 1   
    18     8     9 ar  
    19     8    29 1   
    20     9    10 ar  
    21     9    30 1   
    22    10    11 ar  
    23    10    31 1   
    24    11    32 1   
    25    12    13 1   
    26    12    33 1   
    27    12    34 1   
    28    13    14 1   
    29    13    35 1   
    30    13    36 1   
    31    14    15 1   
    32    14    37 1   
    33    14    38 1   
    34    15    19 1   
    35    15    25 1   
    36    15    39 1   
    37    16    19 1   
    38    17    18 1   
    39    18    40 1   
    40    19    20 1   
    41    19    41 1   
    42    20    21 ar  
    43    21    22 ar  
    44    21    42 1   
    45    22    23 ar  
    46    22    43 1   
    47    25    44 1   
@<TRIPOS>SUBSTRUCTURE
     1 6M3         1 TEMP              0 ****  ****    0 ROOT
