@<TRIPOS>MOLECULE
6M3
   44    47     1     0     0
SMALL
No Charge or Current Charge


@<TRIPOS>ATOM
      1 C1           3.4650    -0.7480    -0.1380 cc         1 6M3      -0.204300
      2 C3           2.3150    -0.8770     1.7640 cc         1 6M3       0.400400
      3 C11         -1.8860     1.9930     0.2110 ca         1 6M3      -0.065000
      4 C12         -1.2840     0.7240     0.0400 cp         1 6M3      -0.017000
      5 C13         -2.1840    -0.4680     0.0200 cp         1 6M3      -0.032000
      6 C14         -1.7570     4.4410     0.4670 cg         1 6M3       0.322000
      7 C16         -2.2680    -1.3630     1.1180 ca         1 6M3       0.127000
      8 C17         -3.1480    -2.4590     1.0840 ca         1 6M3      -0.103000
      9 C18         -3.9700    -2.6720    -0.0350 ca         1 6M3      -0.095000
     10 C19         -3.9210    -1.7800    -1.1180 ca         1 6M3      -0.109000
     11 C20         -3.0420    -0.6840    -1.0850 ca         1 6M3      -0.071000
     12 C21          3.8680    -0.6590    -1.5940 c3         1 6M3       0.000900
     13 C22          3.0320     0.3350    -2.4250 c3         1 6M3      -0.070400
     14 C23          1.6070    -0.1500    -2.7850 c3         1 6M3      -0.112400
     15 C24          0.9590    -1.1610    -1.8050 c3         1 6M3       0.172300
     16 N2           2.1790    -0.7770     0.3930 na         1 6M3      -0.171500
     17 N4           3.5890    -0.9050     2.1210 nd         1 6M3      -0.668000
     18 C5           4.3040    -0.8250     0.9470 cd         1 6M3       0.229900
     19 C6           0.8710    -0.7060    -0.3110 c3         1 6M3       0.133600
     20 C7           0.1380     0.6410    -0.0930 ca         1 6M3      -0.055300
     21 C8           0.8960     1.8320     0.0170 ca         1 6M3      -0.105000
     22 C9           0.2780     3.0790     0.1970 ca         1 6M3      -0.070000
     23 C10         -1.1190     3.1660     0.2850 ca         1 6M3      -0.012000
     24 N15         -2.2840     5.4730     0.6150 n1         1 6M3      -0.447000
     25 O25         -0.3370    -1.4970    -2.3130 oh         1 6M3      -0.657000
     26 Cl1         -1.3120    -1.1120     2.5770 cl         1 6M3      -0.205000
     27 H1           1.4640    -0.9150     2.4320 h5         1 6M3       0.061100
     28 H2          -2.9690     2.0550     0.3010 ha         1 6M3       0.131000
     29 H3          -3.2000    -3.1380     1.9320 ha         1 6M3       0.132000
     30 H4          -4.6510    -3.5210    -0.0580 ha         1 6M3       0.120000
     31 H5          -4.5630    -1.9360    -1.9820 ha         1 6M3       0.119000
     32 H6          -3.0100     0.0010    -1.9290 ha         1 6M3       0.120000
     33 H7           4.9170    -0.3410    -1.6460 hc         1 6M3       0.055200
     34 H8           3.8380    -1.6520    -2.0600 hc         1 6M3       0.055200
     35 H9           2.9850     1.2940    -1.9010 hc         1 6M3       0.048700
     36 H10          3.5670     0.5430    -3.3610 hc         1 6M3       0.048700
     37 H11          0.9550     0.7260    -2.8980 hc         1 6M3       0.048200
     38 H12          1.6540    -0.6230    -3.7740 hc         1 6M3       0.048200
     39 H13          1.5680    -2.0750    -1.8180 h1         1 6M3       0.049700
     40 H14          5.3870    -0.8300     0.9450 h4         1 6M3       0.035100
     41 H15          0.2630    -1.4770     0.1740 h1         1 6M3       0.094700
     42 H16          1.9800     1.8040    -0.0280 ha         1 6M3       0.133000
     43 H17          0.8900     3.9760     0.2710 ha         1 6M3       0.130000
     44 H18         -0.2100    -1.8460    -3.2220 ho         1 6M3       0.451000
@<TRIPOS>BOND
     1     1    12 1   
     2     1    16 1   
     3     1    18 2   
     4     2    16 1   
     5     2    17 2   
     6     2    27 1   
     7     3     4 ar  
     8     3    23 ar  
     9     3    28 1   
    10     4     5 1   
    11     4    20 ar  
    12     5     7 ar  
    13     5    11 ar  
    14     6    23 1   
    15     6    24 3   
    16     7     8 ar  
    17     7    26 1   
    18     8     9 ar  
    19     8    29 1   
    20     9    10 ar  
    21     9    30 1   
    22    10    11 ar  
    23    10    31 1   
    24    11    32 1   
    25    12    13 1   
    26    12    33 1   
    27    12    34 1   
    28    13    14 1   
    29    13    35 1   
    30    13    36 1   
    31    14    15 1   
    32    14    37 1   
    33    14    38 1   
    34    15    19 1   
    35    15    25 1   
    36    15    39 1   
    37    16    19 1   
    38    17    18 1   
    39    18    40 1   
    40    19    20 1   
    41    19    41 1   
    42    20    21 ar  
    43    21    22 ar  
    44    21    42 1   
    45    22    23 ar  
    46    22    43 1   
    47    25    44 1   
@<TRIPOS>SUBSTRUCTURE
     1 6M3         1 TEMP              0 ****  ****    0 ROOT
