@<TRIPOS>MOLECULE
6M5
   83    88     1     0     0
SMALL
No Charge or Current Charge


@<TRIPOS>ATOM
      1 C1          -2.8960     4.1040     0.1910 ca         1 6M5       0.127100
      2 C2          -2.2640     2.8450     0.3090 ca         1 6M5       0.110100
      3 C3          -0.1810     1.5150     0.2360 c3         1 6M5       0.162600
      4 C4           1.3200     1.7960     0.0450 c3         1 6M5      -0.080400
      5 C5           2.1690     0.5040     0.0470 c3         1 6M5      -0.082400
      6 C6           3.6750     0.7710    -0.1420 c3         1 6M5       0.164600
      7 C7           5.7120    -0.6130    -0.2690 ca         1 6M5       0.175100
      8 N1          11.9150    -2.0530    -0.8610 nc         1 6M5      -0.040000
      9 N2          12.1450    -0.7750    -0.9810 nd         1 6M5      -0.206800
     10 N3          10.9220    -0.1900    -0.8870 na         1 6M5      -0.218700
     11 N4          -4.6870    -0.5040     1.4020 n2         1 6M5      -0.454300
     12 C8           6.2700    -1.8980    -0.2370 ca         1 6M5      -0.181000
     13 C10          8.5100    -0.9680    -0.5580 ca         1 6M5      -0.192500
     14 C20         -2.6910    -2.6240     1.7860 c3         1 6M5      -0.080400
     15 C30         -7.4790    -0.2260    -2.2570 c2         1 6M5      -0.224200
     16 C26         -6.1880    -2.1550     0.4510 c          1 6M5       0.558000
     17 N5          -4.8790    -1.7770     0.8780 n          1 6M5      -0.182800
     18 C19         -3.7260    -2.6820     0.6240 c3         1 6M5       0.136700
     19 C25         -3.1220    -2.3560    -0.7700 c3         1 6M5      -0.080400
     20 C24         -1.8800    -3.1700    -1.2070 c3         1 6M5      -0.068900
     21 C23         -0.5910    -2.7890    -0.4430 c3         1 6M5      -0.070900
     22 C22         -0.3820    -3.4980     0.9140 c3         1 6M5      -0.070900
     23 C21         -1.6460    -3.7620     1.7650 c3         1 6M5      -0.068900
     24 C27         -7.2580    -1.0330     0.5220 c6         1 6M5      -0.141700
     25 C32         -6.6010     0.3290     0.1050 c6         1 6M5      -0.129000
     26 C31         -6.3490     0.3730    -1.4340 c6         1 6M5      -0.038200
     27 C29         -8.4680    -0.9700    -1.7370 c2         1 6M5      -0.209200
     28 C28         -8.5790    -1.2940    -0.2560 c6         1 6M5      -0.028200
     29 C18         -5.2620     0.5230     0.8500 ce         1 6M5       0.402900
     30 C15         -4.4560     1.7670     0.6060 ca         1 6M5      -0.119900
     31 C16         -5.0730     3.0300     0.5010 ca         1 6M5      -0.089000
     32 C17         -4.3040     4.1880     0.2930 ca         1 6M5      -0.181000
     33 O           -2.1100     5.2260    -0.0210 os         1 6M5      -0.318100
     34 C           -2.6680     6.5450    -0.1550 c3         1 6M5       0.143900
     35 C14         -3.0470     1.6910     0.5280 ca         1 6M5      -0.143000
     36 O1          -0.8830     2.7710     0.1990 os         1 6M5      -0.331100
     37 O2           4.3450    -0.5010    -0.1230 os         1 6M5      -0.343100
     38 C12          6.5540     0.5030    -0.4460 ca         1 6M5      -0.181000
     39 C11          7.9420     0.3260    -0.5890 ca         1 6M5      -0.034500
     40 C9           7.6560    -2.0800    -0.3790 ca         1 6M5      -0.034500
     41 C13          9.9690    -1.1560    -0.7080 cd         1 6M5       0.473000
     42 N           10.5780    -2.3260    -0.6900 nc         1 6M5      -0.395000
     43 H1          -0.5310     0.8550    -0.5690 h1         1 6M5       0.037200
     44 H2          -0.3380     1.0100     1.1980 h1         1 6M5       0.037200
     45 H3           1.4680     2.3270    -0.9040 hc         1 6M5       0.057700
     46 H4           1.6650     2.4610     0.8470 hc         1 6M5       0.057700
     47 H5           2.0170    -0.0280     0.9950 hc         1 6M5       0.059200
     48 H6           1.8210    -0.1590    -0.7540 hc         1 6M5       0.059200
     49 H7           3.8390     1.2820    -1.0990 h1         1 6M5       0.039200
     50 H8           4.0380     1.4140     0.6710 h1         1 6M5       0.039200
     51 H10          5.6240    -2.7610    -0.1000 ha         1 6M5       0.130000
     52 H11         -2.1860    -1.6500     1.8080 hc         1 6M5       0.047950
     53 H12         -3.2460    -2.7040     2.7290 hc         1 6M5       0.047950
     54 H13         -7.4500    -0.0220    -3.3300 ha         1 6M5       0.176000
     55 H14         -4.1020    -3.7130     0.5910 h1         1 6M5       0.077700
     56 H15         -3.9070    -2.5150    -1.5200 hc         1 6M5       0.047950
     57 H16         -2.8780    -1.2880    -0.8170 hc         1 6M5       0.047950
     58 H17         -2.0750    -4.2460    -1.1220 hc         1 6M5       0.039450
     59 H18         -1.7110    -2.9710    -2.2720 hc         1 6M5       0.039450
     60 H19          0.2750    -3.0140    -1.0790 hc         1 6M5       0.035700
     61 H20         -0.5720    -1.7030    -0.2890 hc         1 6M5       0.035700
     62 H21          0.1130    -4.4610     0.7360 hc         1 6M5       0.035700
     63 H22          0.3240    -2.9000     1.5040 hc         1 6M5       0.035700
     64 H23         -1.3210    -3.9580     2.7940 hc         1 6M5       0.039450
     65 H24         -2.1260    -4.6880     1.4240 hc         1 6M5       0.039450
     66 H25         -7.4780    -0.9310     1.5940 hc         1 6M5       0.078700
     67 H26         -7.2910     1.1380     0.3770 hc         1 6M5       0.073700
     68 H27         -5.4230    -0.1670    -1.6780 hc         1 6M5       0.057200
     69 H28         -6.1820     1.4130    -1.7470 hc         1 6M5       0.057200
     70 H29         -9.2530    -1.3770    -2.3790 ha         1 6M5       0.177000
     71 H30         -8.9030    -2.3350    -0.1200 hc         1 6M5       0.062700
     72 H31         -9.3800    -0.6750     0.1730 hc         1 6M5       0.062700
     73 H32         -6.1530     3.1240     0.5840 ha         1 6M5       0.116000
     74 H33         -4.8190     5.1400     0.2140 ha         1 6M5       0.121000
     75 H34         -3.2130     6.8320     0.7530 h1         1 6M5       0.041367
     76 H35         -1.8690     7.2790    -0.3170 h1         1 6M5       0.041367
     77 H36         -3.3540     6.5940    -1.0100 h1         1 6M5       0.041367
     78 H37         -2.5720     0.7200     0.6240 ha         1 6M5       0.140000
     79 H38          6.1540     1.5120    -0.4750 ha         1 6M5       0.130000
     80 H39          8.5680     1.2050    -0.7250 ha         1 6M5       0.124500
     81 H40          8.0600    -3.0900    -0.3500 ha         1 6M5       0.124500
     82 O3          -6.4570    -3.2880     0.0670 o          1 6M5      -0.532000
     83 H9          10.7830     0.8100    -0.9450 hn         1 6M5       0.384000
@<TRIPOS>BOND
     1     1     2 ar  
     2     1    32 ar  
     3     1    33 1   
     4     2    35 ar  
     5     2    36 1   
     6     3     4 1   
     7     3    36 1   
     8     3    43 1   
     9     3    44 1   
    10     4     5 1   
    11     4    45 1   
    12     4    46 1   
    13     5     6 1   
    14     5    47 1   
    15     5    48 1   
    16     6    37 1   
    17     6    49 1   
    18     6    50 1   
    19     7    12 ar  
    20     7    37 1   
    21     7    38 ar  
    22     8     9 2   
    23     8    42 1   
    24     9    10 1   
    25    10    41 1   
    26    10    83 1   
    27    11    17 1   
    28    11    29 2   
    29    12    40 ar  
    30    12    51 1   
    31    13    39 ar  
    32    13    40 ar  
    33    13    41 1   
    34    14    18 1   
    35    14    23 1   
    36    14    52 1   
    37    14    53 1   
    38    15    26 1   
    39    15    27 2   
    40    15    54 1   
    41    16    17 1   
    42    16    24 1   
    43    16    82 2   
    44    17    18 1   
    45    18    19 1   
    46    18    55 1   
    47    19    20 1   
    48    19    56 1   
    49    19    57 1   
    50    20    21 1   
    51    20    58 1   
    52    20    59 1   
    53    21    22 1   
    54    21    60 1   
    55    21    61 1   
    56    22    23 1   
    57    22    62 1   
    58    22    63 1   
    59    23    64 1   
    60    23    65 1   
    61    24    25 1   
    62    24    28 1   
    63    24    66 1   
    64    25    26 1   
    65    25    29 1   
    66    25    67 1   
    67    26    68 1   
    68    26    69 1   
    69    27    28 1   
    70    27    70 1   
    71    28    71 1   
    72    28    72 1   
    73    29    30 1   
    74    30    31 ar  
    75    30    35 ar  
    76    31    32 ar  
    77    31    73 1   
    78    32    74 1   
    79    33    34 1   
    80    34    75 1   
    81    34    76 1   
    82    34    77 1   
    83    35    78 1   
    84    38    39 ar  
    85    38    79 1   
    86    39    80 1   
    87    40    81 1   
    88    41    42 2   
@<TRIPOS>SUBSTRUCTURE
     1 6M5         1 TEMP              0 ****  ****    0 ROOT
