@<TRIPOS>MOLECULE
6M5
   83    88     1     0     0
SMALL
abcg2


@<TRIPOS>ATOM
      1 C1          -2.5910     4.1080    -0.1310 ca         1 6M5       0.127100
      2 C2          -1.9410     2.8580    -0.0000 ca         1 6M5       0.110100
      3 C3           0.1180     1.6930     0.1790 c3         1 6M5       0.162600
      4 C4           1.5980     2.0050     0.1680 c3         1 6M5      -0.080400
      5 C5           2.4190     0.7480     0.4360 c3         1 6M5      -0.082400
      6 C6           3.8950     1.0120     0.2310 c3         1 6M5       0.164600
      7 C7           5.9250    -0.2330     0.3350 ca         1 6M5       0.175100
      8 N1          12.0940    -1.4850    -0.0940 nc         1 6M5      -0.040000
      9 N2          12.2040    -0.3420    -0.6430 nd         1 6M5      -0.206800
     10 N3          10.9840     0.1690    -0.6880 na         1 6M5      -0.218700
     11 N4          -4.1940    -0.5910     0.2960 n2         1 6M5      -0.454300
     12 C8           6.5570    -1.4360     0.6680 ca         1 6M5      -0.181000
     13 C10          8.6890    -0.5250     0.0020 ca         1 6M5      -0.192500
     14 C20         -2.8170    -3.0170     0.9560 c3         1 6M5      -0.080400
     15 C30         -8.2970    -0.2030    -1.2340 c2         1 6M5      -0.224200
     16 C26         -6.1390    -1.9460     0.7070 c          1 6M5       0.558000
     17 N5          -4.8480    -1.7860     0.2990 n          1 6M5      -0.182800
     18 C19         -3.9820    -2.9210    -0.0330 c3         1 6M5       0.136700
     19 C25         -3.6070    -2.8300    -1.5120 c3         1 6M5      -0.080400
     20 C24         -2.6260    -3.8800    -2.0280 c3         1 6M5      -0.068900
     21 C23         -1.2120    -3.7130    -1.4700 c3         1 6M5      -0.070900
     22 C22         -0.9500    -4.4290    -0.1460 c3         1 6M5      -0.070900
     23 C21         -2.0920    -4.3610     0.8670 c3         1 6M5      -0.068900
     24 C27         -6.8060    -0.6590     1.1460 c6         1 6M5      -0.141700
     25 C32         -6.3560     0.4690     0.2210 c6         1 6M5      -0.129000
     26 C31         -6.8740     0.2630    -1.2110 c6         1 6M5      -0.038200
     27 C29         -8.9440    -0.6490    -0.1620 c2         1 6M5      -0.209200
     28 C28         -8.3210    -0.7660     1.1940 c6         1 6M5      -0.028200
     29 C18         -4.8580     0.4980     0.2380 ce         1 6M5       0.402900
     30 C15         -4.0940     1.7510     0.1430 ca         1 6M5      -0.119900
     31 C16         -4.7190     2.9810     0.0310 ca         1 6M5      -0.089000
     32 C17         -3.9730     4.1510    -0.1050 ca         1 6M5      -0.181000
     33 O           -1.7840     5.1720    -0.2550 os         1 6M5      -0.318100
     34 C           -2.3790     6.4470    -0.3910 c3         1 6M5       0.143900
     35 C14         -2.6890     1.7090     0.1270 ca         1 6M5      -0.143000
     36 O1          -0.5960     2.9010    -0.0200 os         1 6M5      -0.331100
     37 O2           4.6010    -0.1850     0.5290 os         1 6M5      -0.343100
     38 C12          6.6880     0.8250    -0.1590 ca         1 6M5      -0.181000
     39 C11          8.0560     0.6720    -0.3160 ca         1 6M5      -0.034500
     40 C9           7.9160    -1.5780     0.5020 ca         1 6M5      -0.034500
     41 C13         10.1230    -0.6990    -0.1460 cd         1 6M5       0.473000
     42 N           10.8290    -1.7450     0.2290 nc         1 6M5      -0.395000
     43 H1          -0.1150     0.9730    -0.6150 h1         1 6M5       0.037200
     44 H2          -0.1720     1.2370     1.1340 h1         1 6M5       0.037200
     45 H3           1.8700     2.4330    -0.8010 hc         1 6M5       0.057700
     46 H4           1.8210     2.7630     0.9240 hc         1 6M5       0.057700
     47 H5           2.2490     0.4110     1.4620 hc         1 6M5       0.059200
     48 H6           2.0990    -0.0600    -0.2280 hc         1 6M5       0.059200
     49 H7           4.0850     1.3210    -0.8020 h1         1 6M5       0.039200
     50 H8           4.2340     1.8200     0.8900 h1         1 6M5       0.039200
     51 H10          5.9660    -2.2630     1.0410 ha         1 6M5       0.130000
     52 H11         -2.1210    -2.1860     0.8160 hc         1 6M5       0.047950
     53 H12         -3.2330    -2.9050     1.9600 hc         1 6M5       0.047950
     54 H13         -8.8180    -0.1290    -2.1820 ha         1 6M5       0.176000
     55 H14         -4.5960    -3.8100     0.1100 h1         1 6M5       0.077700
     56 H15         -4.5340    -2.8800    -2.0910 hc         1 6M5       0.047950
     57 H16         -3.1750    -1.8430    -1.7070 hc         1 6M5       0.047950
     58 H17         -3.0000    -4.8920    -1.8400 hc         1 6M5       0.039450
     59 H18         -2.5930    -3.7790    -3.1160 hc         1 6M5       0.039450
     60 H19         -0.4770    -4.0580    -2.2010 hc         1 6M5       0.035700
     61 H20         -1.0180    -2.6420    -1.3510 hc         1 6M5       0.035700
     62 H21         -0.7270    -5.4830    -0.3380 hc         1 6M5       0.035700
     63 H22         -0.0430    -4.0090     0.2960 hc         1 6M5       0.035700
     64 H23         -1.6960    -4.6250     1.8510 hc         1 6M5       0.039450
     65 H24         -2.8310    -5.1370     0.6460 hc         1 6M5       0.039450
     66 H25         -6.4230    -0.4530     2.1540 hc         1 6M5       0.078700
     67 H26         -6.7740     1.3990     0.6110 hc         1 6M5       0.073700
     68 H27         -6.2450    -0.4560    -1.7500 hc         1 6M5       0.057200
     69 H28         -6.7820     1.1960    -1.7720 hc         1 6M5       0.057200
     70 H29         -9.9840    -0.9460    -0.2530 ha         1 6M5       0.177000
     71 H30         -8.6230    -1.7000     1.6700 hc         1 6M5       0.062700
     72 H31         -8.7140     0.0240     1.8440 hc         1 6M5       0.062700
     73 H32         -5.7970     3.0670     0.0380 ha         1 6M5       0.116000
     74 H33         -4.4990     5.0910    -0.2010 ha         1 6M5       0.121000
     75 H34         -2.9580     6.7230     0.4950 h1         1 6M5       0.041367
     76 H35         -1.5650     7.1560    -0.5140 h1         1 6M5       0.041367
     77 H36         -3.0300     6.5030    -1.2680 h1         1 6M5       0.041367
     78 H37         -2.2080     0.7440     0.2030 ha         1 6M5       0.140000
     79 H38          6.2420     1.7760    -0.4100 ha         1 6M5       0.130000
     80 H39          8.6150     1.5160    -0.6990 ha         1 6M5       0.124500
     81 H40          8.3860    -2.5160     0.7650 ha         1 6M5       0.124500
     82 O3          -6.6790    -3.0380     0.7490 o          1 6M5      -0.532000
     83 H9          10.8290     1.0790    -1.0990 hn         1 6M5       0.384000
@<TRIPOS>BOND
     1     1     2 ar  
     2     1    32 ar  
     3     1    33 1   
     4     2    35 ar  
     5     2    36 1   
     6     3     4 1   
     7     3    36 1   
     8     3    43 1   
     9     3    44 1   
    10     4     5 1   
    11     4    45 1   
    12     4    46 1   
    13     5     6 1   
    14     5    47 1   
    15     5    48 1   
    16     6    37 1   
    17     6    49 1   
    18     6    50 1   
    19     7    12 ar  
    20     7    37 1   
    21     7    38 ar  
    22     8     9 2   
    23     8    42 1   
    24     9    10 1   
    25    10    41 1   
    26    10    83 1   
    27    11    17 1   
    28    11    29 2   
    29    12    40 ar  
    30    12    51 1   
    31    13    39 ar  
    32    13    40 ar  
    33    13    41 1   
    34    14    18 1   
    35    14    23 1   
    36    14    52 1   
    37    14    53 1   
    38    15    26 1   
    39    15    27 2   
    40    15    54 1   
    41    16    17 1   
    42    16    24 1   
    43    16    82 2   
    44    17    18 1   
    45    18    19 1   
    46    18    55 1   
    47    19    20 1   
    48    19    56 1   
    49    19    57 1   
    50    20    21 1   
    51    20    58 1   
    52    20    59 1   
    53    21    22 1   
    54    21    60 1   
    55    21    61 1   
    56    22    23 1   
    57    22    62 1   
    58    22    63 1   
    59    23    64 1   
    60    23    65 1   
    61    24    25 1   
    62    24    28 1   
    63    24    66 1   
    64    25    26 1   
    65    25    29 1   
    66    25    67 1   
    67    26    68 1   
    68    26    69 1   
    69    27    28 1   
    70    27    70 1   
    71    28    71 1   
    72    28    72 1   
    73    29    30 1   
    74    30    31 ar  
    75    30    35 ar  
    76    31    32 ar  
    77    31    73 1   
    78    32    74 1   
    79    33    34 1   
    80    34    75 1   
    81    34    76 1   
    82    34    77 1   
    83    35    78 1   
    84    38    39 ar  
    85    38    79 1   
    86    39    80 1   
    87    40    81 1   
    88    41    42 2   
@<TRIPOS>SUBSTRUCTURE
     1 6M5         1 TEMP              0 ****  ****    0 ROOT
