@<TRIPOS>MOLECULE
6M6
   33    33     1     0     0
SMALL
bcc


@<TRIPOS>ATOM
      1 SG          88.7810    17.3240    25.0980 ss         1 6M6      -0.315700
      2 CB          90.1900    18.4530    25.4650 c3         1 6M6       0.046700
      3 CA          90.1000    19.9240    25.0840 c3         1 6M6      -0.010500
      4 C           91.5000    20.5950    25.2150 c          1 6M6       0.918600
      5 O           91.8200    21.3950    24.3190 o          1 6M6      -0.818300
      6 N           89.4500    20.0950    23.7930 n8         1 6M6      -0.914800
      7 C01         85.9220    20.1840    25.1800 c3         1 6M6       0.081000
      8 C03         85.3090    20.4940    23.8110 c3         1 6M6      -0.048100
      9 C07         84.8640    19.2580    23.0840 ca         1 6M6      -0.074300
     10 N01         87.1100    19.3720    25.0540 ns         1 6M6      -0.475900
     11 S01         86.0580    17.1660    26.1430 s          1 6M6      -0.648400
     12 C02         87.2360    18.1260    25.4500 cs         1 6M6       0.517000
     13 C08         83.5720    18.7630    23.2480 ca         1 6M6      -0.114500
     14 C09         83.1730    17.5890    22.6240 ca         1 6M6      -0.125500
     15 C04         84.0670    16.8870    21.8250 ca         1 6M6      -0.130000
     16 C05         85.3550    17.3740    21.6480 ca         1 6M6      -0.125500
     17 C06         85.7470    18.5530    22.2690 ca         1 6M6      -0.114500
     18 HB2         90.4110    18.3630    26.5250 h1         1 6M6       0.081200
     19 HB3         90.9990    17.9620    24.9180 h1         1 6M6       0.081200
     20 HA          89.4650    20.4180    25.8300 h1         1 6M6       0.051700
     21 OXT         92.1490    20.2930    26.2340 o          1 6M6      -0.818300
     22 H           89.6500    21.0280    23.4510 hn         1 6M6       0.358300
     23 H2          89.8440    19.4590    23.1090 hn         1 6M6       0.358300
     24 H8          86.1970    21.1210    25.6700 h1         1 6M6       0.066700
     25 H9          85.2040    19.6690    25.8150 h1         1 6M6       0.066700
     26 H10         86.0370    21.0460    23.2100 hc         1 6M6       0.048200
     27 H11         84.4640    21.1680    23.9740 hc         1 6M6       0.048200
     28 H12         87.8840    19.7560    24.4600 hn         1 6M6       0.387500
     29 H13         82.8710    19.3020    23.8740 ha         1 6M6       0.128000
     30 H14         82.1640    17.2220    22.7620 ha         1 6M6       0.123000
     31 H15         83.7590    15.9700    21.3390 ha         1 6M6       0.120000
     32 H16         86.0560    16.8380    21.0210 ha         1 6M6       0.123000
     33 H17         86.7540    18.9270    22.1190 ha         1 6M6       0.128000
@<TRIPOS>BOND
     1     1     2 1   
     2     1    12 1   
     3     2     3 1   
     4     2    18 1   
     5     2    19 1   
     6     3     4 1   
     7     3     6 1   
     8     3    20 1   
     9     4     5 1   
    10     4    21 1   
    11     6    22 1   
    12     6    23 1   
    13     7     8 1   
    14     7    10 1   
    15     7    24 1   
    16     7    25 1   
    17     8     9 1   
    18     8    26 1   
    19     8    27 1   
    20     9    13 ar  
    21     9    17 ar  
    22    10    12 1   
    23    10    28 1   
    24    11    12 2   
    25    13    14 ar  
    26    13    29 1   
    27    14    15 ar  
    28    14    30 1   
    29    15    16 ar  
    30    15    31 1   
    31    16    17 ar  
    32    16    32 1   
    33    17    33 1   
@<TRIPOS>SUBSTRUCTURE
     1 6M6         1 TEMP              0 ****  ****    0 ROOT
