@<TRIPOS>MOLECULE
6M8
   47    49     1     0     0
SMALL
No Charge or Current Charge


@<TRIPOS>ATOM
      1 C31          6.6790     3.0690    -0.7670 c3         1 6M8       0.150600
      2 N29          6.3600     2.0270     0.2340 n3         1 6M8      -0.716600
      3 C30          6.1990     2.5990     1.5930 c3         1 6M8       0.150600
      4 C28          5.2230     1.1710    -0.1970 c3         1 6M8       0.165800
      5 C27          4.9820    -0.0880     0.6680 c3         1 6M8      -0.034100
      6 C21          3.9090    -0.9900     0.0720 ca         1 6M8      -0.045300
      7 C22          4.2670    -2.0990    -0.7180 ca         1 6M8      -0.144000
      8 C23          3.2750    -2.9260    -1.2700 ca         1 6M8      -0.073000
      9 C24          1.9160    -2.6490    -1.0390 ca         1 6M8      -0.201000
     10 C25          1.5490    -1.5380    -0.2490 ca         1 6M8       0.144100
     11 C26          2.5470    -0.7170     0.2990 ca         1 6M8      -0.145000
     12 O12          0.2330    -1.2150     0.0120 os         1 6M8      -0.343100
     13 C11         -0.8630    -1.9910    -0.5020 c3         1 6M8       0.208900
     14 C10         -3.9490     0.2980    -0.3370 ca         1 6M8       0.324000
     15 C09         -2.7470    -0.3030    -0.7550 ca         1 6M8      -0.085000
     16 C08         -2.1650    -1.3600    -0.0270 ca         1 6M8      -0.071300
     17 C07         -2.7940    -1.8220     1.1430 ca         1 6M8      -0.106000
     18 C06         -3.9930    -1.2370     1.5790 ca         1 6M8      -0.077000
     19 C05         -4.5710    -0.1830     0.8460 ca         1 6M8      -0.124000
     20 C04         -5.7720     0.4040     1.2810 ca         1 6M8      -0.029000
     21 C03         -6.3060     1.4510     0.5160 ca         1 6M8      -0.209000
     22 C02         -5.6160     1.8440    -0.6310 ca         1 6M8       0.619900
     23 N02         -6.0140     2.8300    -1.4360 nv         1 6M8      -1.072900
     24 N01         -4.4810     1.3120    -1.0630 nb         1 6M8      -0.761000
     25 H311         7.5720     3.6350    -0.4680 h1         1 6M8       0.029700
     26 H312         6.8800     2.6180    -1.7480 h1         1 6M8       0.029700
     27 H313         5.8450     3.7750    -0.8770 h1         1 6M8       0.029700
     28 H301         5.2950     3.2220     1.6500 h1         1 6M8       0.029700
     29 H302         6.1250     1.8100     2.3520 h1         1 6M8       0.029700
     30 H303         7.0630     3.2250     1.8530 h1         1 6M8       0.029700
     31 H281         4.2960     1.7620    -0.2190 h1         1 6M8       0.035200
     32 H282         5.4030     0.8280    -1.2250 h1         1 6M8       0.035200
     33 H271         5.9260    -0.6370     0.7680 hc         1 6M8       0.054700
     34 H272         4.6870     0.2090     1.6810 hc         1 6M8       0.054700
     35 H22          5.3150    -2.3210    -0.9050 ha         1 6M8       0.116000
     36 H26          2.2580     0.1390     0.9050 ha         1 6M8       0.125000
     37 H23          3.5590    -3.7810    -1.8800 ha         1 6M8       0.110000
     38 H24          1.1700    -3.3050    -1.4780 ha         1 6M8       0.116000
     39 H111        -0.8440    -2.0060    -1.6000 h1         1 6M8       0.042700
     40 H112        -0.8050    -3.0270    -0.1440 h1         1 6M8       0.042700
     41 H07         -2.3530    -2.6340     1.7170 ha         1 6M8       0.122000
     42 H06         -4.4710    -1.6030     2.4850 ha         1 6M8       0.113000
     43 H04         -6.2760     0.0620     2.1830 ha         1 6M8       0.117000
     44 H03         -7.2300     1.9400     0.8060 ha         1 6M8       0.120000
     45 H021        -6.6280     3.5330    -1.0370 hn         1 6M8       0.481000
     46 H022        -5.3070     3.1630    -2.0800 hn         1 6M8       0.481000
     47 H09         -2.2610     0.0600    -1.6570 ha         1 6M8       0.129000
@<TRIPOS>BOND
     1     1     2 1   
     2     1    25 1   
     3     1    26 1   
     4     1    27 1   
     5     2     3 1   
     6     2     4 1   
     7     3    28 1   
     8     3    29 1   
     9     3    30 1   
    10     4     5 1   
    11     4    31 1   
    12     4    32 1   
    13     5     6 1   
    14     5    33 1   
    15     5    34 1   
    16     6     7 ar  
    17     6    11 ar  
    18     7     8 ar  
    19     7    35 1   
    20     8     9 ar  
    21     8    37 1   
    22     9    10 ar  
    23     9    38 1   
    24    10    11 ar  
    25    10    12 1   
    26    11    36 1   
    27    12    13 1   
    28    13    16 1   
    29    13    39 1   
    30    13    40 1   
    31    14    15 ar  
    32    14    19 ar  
    33    14    24 ar  
    34    15    16 ar  
    35    15    47 1   
    36    16    17 ar  
    37    17    18 ar  
    38    17    41 1   
    39    18    19 ar  
    40    18    42 1   
    41    19    20 ar  
    42    20    21 ar  
    43    20    43 1   
    44    21    22 ar  
    45    21    44 1   
    46    22    23 1   
    47    22    24 ar  
    48    23    45 1   
    49    23    46 1   
@<TRIPOS>SUBSTRUCTURE
     1 6M8         1 TEMP              0 ****  ****    0 ROOT
