@<TRIPOS>MOLECULE
6M8
   47    49     1     0     0
SMALL
abcg2


@<TRIPOS>ATOM
      1 C31          6.8860     2.8200    -0.4600 c3         1 6M8       0.150600
      2 N29          6.4970     1.7590     0.4450 n3         1 6M8      -0.716600
      3 C30          6.3180     2.2740     1.7850 c3         1 6M8       0.150600
      4 C28          5.3240     1.0640    -0.0500 c3         1 6M8       0.165800
      5 C27          5.0350    -0.2410     0.6930 c3         1 6M8      -0.034100
      6 C21          3.9240    -0.9990     0.0210 ca         1 6M8      -0.045300
      7 C22          4.2070    -1.9920    -0.9180 ca         1 6M8      -0.144000
      8 C23          3.1720    -2.6500    -1.5600 ca         1 6M8      -0.073000
      9 C24          1.8430    -2.3370    -1.2930 ca         1 6M8      -0.201000
     10 C25          1.5560    -1.3440    -0.3600 ca         1 6M8       0.144100
     11 C26          2.5990    -0.6860     0.2920 ca         1 6M8      -0.145000
     12 O12          0.3080    -0.9520    -0.0270 os         1 6M8      -0.343100
     13 C11         -0.7920    -1.6040    -0.6400 c3         1 6M8       0.208900
     14 C10         -4.1240     0.2120    -0.4170 ca         1 6M8       0.324000
     15 C09         -2.9260    -0.3470    -0.9160 ca         1 6M8      -0.085000
     16 C08         -2.0480    -1.0000    -0.0880 ca         1 6M8      -0.071300
     17 C07         -2.3310    -1.1150     1.2910 ca         1 6M8      -0.106000
     18 C06         -3.4810    -0.5760     1.8030 ca         1 6M8      -0.077000
     19 C05         -4.3960     0.0930     0.9660 ca         1 6M8      -0.124000
     20 C04         -5.6040     0.6680     1.4350 ca         1 6M8      -0.029000
     21 C03         -6.4390     1.2910     0.5670 ca         1 6M8      -0.209000
     22 C02         -6.0730     1.3580    -0.8150 ca         1 6M8       0.619900
     23 N02         -6.9230     1.9440    -1.6920 nv         1 6M8      -1.072900
     24 N01         -4.9570     0.8420    -1.2770 nb         1 6M8      -0.761000
     25 H311         7.8110     3.2840    -0.1140 h1         1 6M8       0.029700
     26 H312         7.0690     2.4170    -1.4570 h1         1 6M8       0.029700
     27 H313         6.1290     3.6140    -0.5520 h1         1 6M8       0.029700
     28 H301         5.4910     2.9980     1.8640 h1         1 6M8       0.029700
     29 H302         6.1210     1.4680     2.4930 h1         1 6M8       0.029700
     30 H303         7.2300     2.7750     2.1120 h1         1 6M8       0.029700
     31 H281         4.4250     1.7060    -0.0230 h1         1 6M8       0.035200
     32 H282         5.4990     0.8230    -1.1020 h1         1 6M8       0.035200
     33 H271         5.9440    -0.8460     0.7060 hc         1 6M8       0.054700
     34 H272         4.7660    -0.0410     1.7320 hc         1 6M8       0.054700
     35 H22          5.2360    -2.2490    -1.1390 ha         1 6M8       0.116000
     36 H26          2.3640     0.0820     1.0220 ha         1 6M8       0.125000
     37 H23          3.3910    -3.4250    -2.2840 ha         1 6M8       0.110000
     38 H24          1.0630    -2.8710    -1.8170 ha         1 6M8       0.116000
     39 H111        -0.7590    -1.4840    -1.7280 h1         1 6M8       0.042700
     40 H112        -0.7620    -2.6790    -0.4240 h1         1 6M8       0.042700
     41 H07         -1.6400    -1.6360     1.9410 ha         1 6M8       0.122000
     42 H06         -3.7040    -0.6650     2.8600 ha         1 6M8       0.113000
     43 H04         -5.8550     0.6040     2.4870 ha         1 6M8       0.117000
     44 H03         -7.3690     1.7340     0.9010 ha         1 6M8       0.120000
     45 H021        -7.6470     2.5480    -1.3440 hn         1 6M8       0.481000
     46 H022        -6.5740     2.1640    -2.6100 hn         1 6M8       0.481000
     47 H09         -2.7160    -0.2490    -1.9750 ha         1 6M8       0.129000
@<TRIPOS>BOND
     1     1     2 1   
     2     1    25 1   
     3     1    26 1   
     4     1    27 1   
     5     2     3 1   
     6     2     4 1   
     7     3    28 1   
     8     3    29 1   
     9     3    30 1   
    10     4     5 1   
    11     4    31 1   
    12     4    32 1   
    13     5     6 1   
    14     5    33 1   
    15     5    34 1   
    16     6     7 ar  
    17     6    11 ar  
    18     7     8 ar  
    19     7    35 1   
    20     8     9 ar  
    21     8    37 1   
    22     9    10 ar  
    23     9    38 1   
    24    10    11 ar  
    25    10    12 1   
    26    11    36 1   
    27    12    13 1   
    28    13    16 1   
    29    13    39 1   
    30    13    40 1   
    31    14    15 ar  
    32    14    19 ar  
    33    14    24 ar  
    34    15    16 ar  
    35    15    47 1   
    36    16    17 ar  
    37    17    18 ar  
    38    17    41 1   
    39    18    19 ar  
    40    18    42 1   
    41    19    20 ar  
    42    20    21 ar  
    43    20    43 1   
    44    21    22 ar  
    45    21    44 1   
    46    22    23 1   
    47    22    24 ar  
    48    23    45 1   
    49    23    46 1   
@<TRIPOS>SUBSTRUCTURE
     1 6M8         1 TEMP              0 ****  ****    0 ROOT
