@<TRIPOS>MOLECULE
6MB
   49    52     1     0     0
SMALL
bcc


@<TRIPOS>ATOM
      1 C01          4.8570     0.1310     0.2110 ca         1 6MB       0.143500
      2 C02          5.3720     1.2460     0.9000 ca         1 6MB       0.604000
      3 N01          4.5960     1.8790     1.7920 nb         1 6MB      -0.642000
      4 C03          3.3830     1.4130     1.9770 ca         1 6MB       0.361900
      5 C04          2.8800     0.2950     1.2940 ca         1 6MB       0.207300
      6 N02          3.6320    -0.3310     0.4120 nb         1 6MB      -0.542000
      7 C05          1.4890    -0.2120     1.5370 c3         1 6MB       0.191500
      8 C06          5.7080    -0.5530    -0.7660 c          1 6MB       0.634000
      9 N03          6.6190     1.7250     0.7130 nc         1 6MB      -0.779700
     10 N04          6.9550     0.0230    -0.8770 ns         1 6MB      -0.528400
     11 C07          7.3720     1.1110    -0.1600 cd         1 6MB       0.762800
     12 O01          5.3890    -1.5190    -1.4250 o          1 6MB      -0.555500
     13 N05          8.6110     1.5360    -0.3880 nv         1 6MB      -0.940800
     14 N06          0.6990    -0.1030     0.3350 nu         1 6MB      -0.755600
     15 C08         -0.5540    -0.5970     0.2140 ca         1 6MB       0.259600
     16 C09         -1.3030    -0.3190    -0.9480 ca         1 6MB      -0.244000
     17 C10         -2.5720    -0.8200    -1.1090 ca         1 6MB       0.026000
     18 C11         -3.1340    -1.6210    -0.1140 ca         1 6MB      -0.400500
     19 C12         -2.4120    -1.9090     1.0400 ca         1 6MB       0.026000
     20 C13         -1.1390    -1.4050     1.2070 ca         1 6MB      -0.244000
     21 S01         -4.7900    -2.1510    -0.2570 sy         1 6MB       1.308200
     22 N07         -5.7270    -0.9530     0.4760 nu         1 6MB      -0.774800
     23 C14         -5.7280     0.3060    -0.0990 cc         1 6MB       0.480600
     24 O02         -5.1730    -2.1310    -1.6560 o          1 6MB      -0.590800
     25 O03         -5.0030    -3.3320     0.5580 o          1 6MB      -0.590800
     26 C15         -4.9880     1.4210     0.1090 cd         1 6MB      -0.356900
     27 C16         -5.5500     2.3440    -0.8190 cd         1 6MB       0.341600
     28 N08         -6.5130     1.7980    -1.5050 nc         1 6MB      -0.346300
     29 O04         -6.6400     0.5230    -1.0550 os         1 6MB      -0.078100
     30 C17         -3.8650     1.6590     1.0510 c3         1 6MB      -0.010800
     31 C18         -5.1310     3.7510    -1.0430 c3         1 6MB      -0.132400
     32 H1           2.7580     1.9320     2.6950 h4         1 6MB       0.032100
     33 H2           1.5480    -1.2600     1.8440 h1         1 6MB       0.057700
     34 H3           1.0380     0.3390     2.3700 h1         1 6MB       0.057700
     35 H4           7.5920    -0.4070    -1.5370 hn         1 6MB       0.329500
     36 H5           9.2230     1.1020    -1.0560 hn         1 6MB       0.462300
     37 H6           8.9560     2.3300     0.1230 hn         1 6MB       0.462300
     38 H7           0.9850     0.5870    -0.3420 hn         1 6MB       0.440800
     39 H8          -0.8680     0.2940    -1.7280 ha         1 6MB       0.136500
     40 H9          -3.1190    -0.5890    -2.0130 ha         1 6MB       0.152500
     41 H10         -2.8370    -2.5260     1.8210 ha         1 6MB       0.152500
     42 H11         -0.6030    -1.6450     2.1150 ha         1 6MB       0.136500
     43 H12         -5.6740    -0.9700     1.4900 hn         1 6MB       0.446800
     44 H13         -2.9880     2.0340     0.5230 hc         1 6MB       0.043700
     45 H14         -4.1320     2.3970     1.8090 hc         1 6MB       0.043700
     46 H15         -3.5690     0.7450     1.5650 hc         1 6MB       0.043700
     47 H16         -4.0740     3.8010    -1.3070 hc         1 6MB       0.055700
     48 H17         -5.7090     4.2100    -1.8430 hc         1 6MB       0.055700
     49 H18         -5.2680     4.3420    -0.1370 hc         1 6MB       0.055700
@<TRIPOS>BOND
     1     1     2 ar  
     2     1     6 ar  
     3     1     8 1   
     4     2     3 ar  
     5     2     9 1   
     6     3     4 ar  
     7     4     5 ar  
     8     4    32 1   
     9     5     6 ar  
    10     5     7 1   
    11     7    14 1   
    12     7    33 1   
    13     7    34 1   
    14     8    10 1   
    15     8    12 2   
    16     9    11 2   
    17    10    11 1   
    18    10    35 1   
    19    11    13 1   
    20    13    36 1   
    21    13    37 1   
    22    14    15 1   
    23    14    38 1   
    24    15    16 ar  
    25    15    20 ar  
    26    16    17 ar  
    27    16    39 1   
    28    17    18 ar  
    29    17    40 1   
    30    18    19 ar  
    31    18    21 1   
    32    19    20 ar  
    33    19    41 1   
    34    20    42 1   
    35    21    22 1   
    36    21    24 2   
    37    21    25 2   
    38    22    23 1   
    39    22    43 1   
    40    23    26 2   
    41    23    29 1   
    42    26    27 1   
    43    26    30 1   
    44    27    28 2   
    45    27    31 1   
    46    28    29 1   
    47    30    44 1   
    48    30    45 1   
    49    30    46 1   
    50    31    47 1   
    51    31    48 1   
    52    31    49 1   
@<TRIPOS>SUBSTRUCTURE
     1 6MB         1 TEMP              0 ****  ****    0 ROOT
