@<TRIPOS>MOLECULE
6MB
   49    52     1     0     0
SMALL
No Charge or Current Charge


@<TRIPOS>ATOM
      1 C01          5.0200     0.2280    -0.1110 ca         1 6MB       0.143500
      2 C02          5.8010     0.8840     0.8950 ca         1 6MB       0.341000
      3 N01          5.2400     1.0820     2.1120 nb         1 6MB      -0.116000
      4 C03          3.9780     0.6590     2.3300 ca         1 6MB       0.098900
      5 C04          3.2200     0.0170     1.3340 ca         1 6MB       0.207300
      6 N02          3.7410    -0.2050     0.1010 nb         1 6MB      -0.542000
      7 C05          1.7840    -0.4560     1.6180 c3         1 6MB       0.191500
      8 C06          5.6580     0.0140    -1.4550 c          1 6MB       0.491500
      9 N03          7.1280     1.3360     0.6840 nc         1 6MB      -0.779700
     10 N04          6.9220     0.4890    -1.5410 ns         1 6MB      -0.461400
     11 C07          7.5520     1.0880    -0.5250 cd         1 6MB       0.762800
     12 O01          5.1190    -0.5360    -2.4070 o          1 6MB      -0.480000
     13 N05          8.7770     1.5040    -0.7460 nv         1 6MB      -1.051200
     14 N06          0.8980    -0.3720     0.4320 nu         1 6MB      -0.949200
     15 C08         -0.4210    -0.8040     0.3380 ca         1 6MB       0.398000
     16 C09         -0.9550    -1.0730    -0.9280 ca         1 6MB      -0.226000
     17 C10         -2.2830    -1.5080    -1.0620 ca         1 6MB       0.044000
     18 C11         -3.0820    -1.6720     0.0860 ca         1 6MB      -0.400500
     19 C12         -2.5490    -1.4000     1.3600 ca         1 6MB       0.044000
     20 C13         -1.2190    -0.9660     1.4800 ca         1 6MB      -0.226000
     21 S01         -4.7850    -2.2080    -0.0670 sy         1 6MB       1.166600
     22 N07         -5.6900    -0.8150     0.1000 nu         1 6MB      -0.830000
     23 C14         -5.3260     0.3990    -0.4130 cc         1 6MB       0.370900
     24 O02         -5.0610    -2.6650    -1.4310 o          1 6MB      -0.520000
     25 O03         -5.1680    -2.9780     1.1160 o          1 6MB      -0.520000
     26 C15         -5.5190     1.6380     0.1100 cd         1 6MB      -0.226300
     27 C16         -4.9550     2.5190    -0.8380 cd         1 6MB       0.276300
     28 N08         -4.4530     1.9030    -1.8930 nc         1 6MB      -0.346300
     29 O04         -4.6970     0.5070    -1.6300 os         1 6MB      -0.033700
     30 C17         -6.1770     2.0040     1.4200 c3         1 6MB      -0.010800
     31 C18         -4.8920     4.0190    -0.7360 c3         1 6MB      -0.132400
     32 H1           3.5690     0.8380     3.3230 h4         1 6MB       0.032100
     33 H2           1.8300    -1.4940     1.9740 h1         1 6MB       0.057700
     34 H3           1.3700     0.1520     2.4350 h1         1 6MB       0.057700
     35 H4           7.4020     0.3460    -2.4150 hn         1 6MB       0.329500
     36 H5           8.9750     1.8390    -1.6790 hn         1 6MB       0.517500
     37 H6           9.1270     2.0940    -0.0020 hn         1 6MB       0.517500
     38 H7           1.3900    -0.2920    -0.4610 hn         1 6MB       0.496000
     39 H8          -0.3430    -0.9460    -1.8150 ha         1 6MB       0.118500
     40 H9          -2.6830    -1.7100    -2.0550 ha         1 6MB       0.134500
     41 H10         -3.1570    -1.5180     2.2570 ha         1 6MB       0.134500
     42 H11         -0.8190    -0.7530     2.4650 ha         1 6MB       0.118500
     43 H12         -5.9840    -0.7990     1.0640 hn         1 6MB       0.502000
     44 H13         -5.4820     1.8690     2.2580 hc         1 6MB       0.043700
     45 H14         -6.5090     3.0490     1.4260 hc         1 6MB       0.043700
     46 H15         -7.0590     1.3800     1.6100 hc         1 6MB       0.043700
     47 H16         -4.4430     4.3250     0.2150 hc         1 6MB       0.055700
     48 H17         -4.2930     4.4560    -1.5440 hc         1 6MB       0.055700
     49 H18         -5.8970     4.4530    -0.7910 hc         1 6MB       0.055700
@<TRIPOS>BOND
     1     1     2 ar  
     2     1     6 ar  
     3     1     8 1   
     4     2     3 ar  
     5     2     9 1   
     6     3     4 ar  
     7     4     5 ar  
     8     4    32 1   
     9     5     6 ar  
    10     5     7 1   
    11     7    14 1   
    12     7    33 1   
    13     7    34 1   
    14     8    10 1   
    15     8    12 2   
    16     9    11 2   
    17    10    11 1   
    18    10    35 1   
    19    11    13 1   
    20    13    36 1   
    21    13    37 1   
    22    14    15 1   
    23    14    38 1   
    24    15    16 ar  
    25    15    20 ar  
    26    16    17 ar  
    27    16    39 1   
    28    17    18 ar  
    29    17    40 1   
    30    18    19 ar  
    31    18    21 1   
    32    19    20 ar  
    33    19    41 1   
    34    20    42 1   
    35    21    22 1   
    36    21    24 2   
    37    21    25 2   
    38    22    23 1   
    39    22    43 1   
    40    23    26 2   
    41    23    29 1   
    42    26    27 1   
    43    26    30 1   
    44    27    28 2   
    45    27    31 1   
    46    28    29 1   
    47    30    44 1   
    48    30    45 1   
    49    30    46 1   
    50    31    47 1   
    51    31    48 1   
    52    31    49 1   
@<TRIPOS>SUBSTRUCTURE
     1 6MB         1 TEMP              0 ****  ****    0 ROOT
