@<TRIPOS>MOLECULE
6MD
   35    37     1     0     0
SMALL
No Charge or Current Charge


@<TRIPOS>ATOM
      1 O5          -3.2340    -2.3940     1.2790 oh         1 6MD      -0.699000
      2 C5          -3.3480    -1.5450     0.1240 c3         1 6MD       0.142600
      3 C4          -3.3120    -0.0370     0.5280 c5         1 6MD       0.127300
      4 O4          -1.9670     0.3480     0.9150 os         1 6MD      -0.425000
      5 C3          -3.6580     0.9470    -0.6380 c5         1 6MD       0.100300
      6 O3          -3.9470     2.2850    -0.1850 oh         1 6MD      -0.683000
      7 C2          -2.3160     0.9080    -1.4200 c5         1 6MD       0.135300
      8 O2          -2.2170     2.0450    -2.2860 oh         1 6MD      -0.665000
      9 C1          -1.2800     0.9090    -0.2330 c5         1 6MD       0.315300
     10 N9          -0.0030     0.2140    -0.4210 na         1 6MD      -0.292300
     11 C8           0.2480    -0.8450    -1.3010 cc         1 6MD       0.408700
     12 N7           1.5360    -1.2350    -1.2480 nd         1 6MD      -0.561100
     13 C7           2.0930    -0.3760    -0.2960 ca         1 6MD      -0.100600
     14 C6           3.4190    -0.3090     0.1800 ca         1 6MD       0.442900
     15 N6           4.3970    -1.1750    -0.2960 nu         1 6MD      -0.916100
     16 N1           3.7700     0.6010     1.1110 nb         1 6MD      -0.299000
     17 C10          2.7860     1.4240     1.5450 ca         1 6MD       0.177900
     18 N3           1.4930     1.4260     1.1410 nb         1 6MD      -0.208000
     19 C9           1.1720     0.5050     0.2120 ca         1 6MD       0.135500
     20 CZ           5.8180    -1.2340     0.0930 c3         1 6MD       0.225100
     21 H1          -3.2480    -3.3270     0.9580 ho         1 6MD       0.506000
     22 H2          -2.5390    -1.7620    -0.5860 h1         1 6MD       0.021200
     23 H3          -4.2990    -1.7450    -0.3880 h1         1 6MD       0.021200
     24 H4          -3.9900     0.1020     1.3800 h1         1 6MD       0.089700
     25 H5          -4.4870     0.5640    -1.2500 h1         1 6MD       0.050700
     26 H6          -4.7890     2.2520     0.3290 ho         1 6MD       0.506000
     27 H7          -2.2500    -0.0150    -2.0100 h1         1 6MD       0.043700
     28 H8          -2.8170     2.7100    -1.8650 ho         1 6MD       0.510000
     29 H9          -1.0190     1.9500    -0.0000 h2         1 6MD       0.129700
     30 H10         -0.5180    -1.2810    -1.9310 h5         1 6MD       0.071800
     31 H11          4.0590    -1.8360    -0.9990 hn         1 6MD       0.514000
     32 H12          3.0630     2.1620     2.2960 h5         1 6MD       0.045100
     33 H13          6.3160    -0.2790    -0.1230 h1         1 6MD       0.042367
     34 H14          5.9150    -1.4420     1.1670 h1         1 6MD       0.042367
     35 H15          6.3360    -2.0280    -0.4610 h1         1 6MD       0.042367
@<TRIPOS>BOND
     1     1     2 1   
     2     1    21 1   
     3     2     3 1   
     4     2    22 1   
     5     2    23 1   
     6     3     4 1   
     7     3     5 1   
     8     3    24 1   
     9     4     9 1   
    10     5     6 1   
    11     5     7 1   
    12     5    25 1   
    13     6    26 1   
    14     7     8 1   
    15     7     9 1   
    16     7    27 1   
    17     8    28 1   
    18     9    10 1   
    19     9    29 1   
    20    10    11 1   
    21    10    19 1   
    22    11    12 2   
    23    11    30 1   
    24    12    13 1   
    25    13    14 ar  
    26    13    19 ar  
    27    14    15 1   
    28    14    16 ar  
    29    15    20 1   
    30    15    31 1   
    31    16    17 ar  
    32    17    18 ar  
    33    17    32 1   
    34    18    19 ar  
    35    20    33 1   
    36    20    34 1   
    37    20    35 1   
@<TRIPOS>SUBSTRUCTURE
     1 6MD         1 TEMP              0 ****  ****    0 ROOT
