@<TRIPOS>MOLECULE
6MD
   35    37     1     0     0
SMALL
abcg2


@<TRIPOS>ATOM
      1 O5          -3.5150    -2.5880     0.2910 oh         1 6MD      -0.699000
      2 C5          -3.6870    -1.4400    -0.5020 c3         1 6MD       0.142600
      3 C4          -3.4910    -0.2140     0.3710 c5         1 6MD       0.127300
      4 O4          -2.2360    -0.2530     1.0560 os         1 6MD      -0.425000
      5 C3          -3.4600     1.0780    -0.4440 c5         1 6MD       0.100300
      6 O3          -3.7370     2.2110     0.3350 oh         1 6MD      -0.683000
      7 C2          -1.9800     1.1210    -0.8260 c5         1 6MD       0.135300
      8 O2          -1.4570     2.3620    -1.1730 oh         1 6MD      -0.665000
      9 C1          -1.3200     0.6170     0.4620 c5         1 6MD       0.315300
     10 N9          -0.0780    -0.0910     0.2330 na         1 6MD      -0.292300
     11 C8           0.0730    -1.3920    -0.1610 cc         1 6MD       0.408700
     12 N7           1.3170    -1.7380    -0.3230 nd         1 6MD      -0.561100
     13 C7           2.0290    -0.6070    -0.0220 ca         1 6MD      -0.100600
     14 C6           3.4090    -0.3200     0.0030 ca         1 6MD       0.442900
     15 N6           4.3350    -1.2250    -0.3170 nu         1 6MD      -0.916100
     16 N1           3.7850     0.9110     0.3640 nb         1 6MD      -0.299000
     17 C10          2.8530     1.8060     0.6830 ca         1 6MD       0.177900
     18 N3           1.5410     1.6610     0.6920 nb         1 6MD      -0.208000
     19 C9           1.1790     0.4300     0.3300 ca         1 6MD       0.135500
     20 CZ           5.7520    -0.9600    -0.2910 c3         1 6MD       0.225100
     21 H1          -3.6350    -3.3590    -0.2720 ho         1 6MD       0.506000
     22 H2          -2.9820    -1.4290    -1.3450 h1         1 6MD       0.021200
     23 H3          -4.6940    -1.3820    -0.9340 h1         1 6MD       0.021200
     24 H4          -4.2790    -0.1910     1.1300 h1         1 6MD       0.089700
     25 H5          -4.1130     1.0180    -1.3240 h1         1 6MD       0.050700
     26 H6          -4.6530     2.1640     0.6250 ho         1 6MD       0.506000
     27 H7          -1.8160     0.3790    -1.6190 h1         1 6MD       0.043700
     28 H8          -1.7460     2.5790    -2.0640 ho         1 6MD       0.510000
     29 H9          -1.0790     1.4580     1.1220 h2         1 6MD       0.129700
     30 H10         -0.7720    -2.0520    -0.2850 h5         1 6MD       0.071800
     31 H11          4.0210    -2.1440    -0.5800 hn         1 6MD       0.514000
     32 H12          3.2270     2.7830     0.9730 h5         1 6MD       0.045100
     33 H13          6.0240    -0.1530    -0.9720 h1         1 6MD       0.042367
     34 H14          6.0970    -0.6920     0.7080 h1         1 6MD       0.042367
     35 H15          6.2710    -1.8620    -0.6030 h1         1 6MD       0.042367
@<TRIPOS>BOND
     1     1     2 1   
     2     1    21 1   
     3     2     3 1   
     4     2    22 1   
     5     2    23 1   
     6     3     4 1   
     7     3     5 1   
     8     3    24 1   
     9     4     9 1   
    10     5     6 1   
    11     5     7 1   
    12     5    25 1   
    13     6    26 1   
    14     7     8 1   
    15     7     9 1   
    16     7    27 1   
    17     8    28 1   
    18     9    10 1   
    19     9    29 1   
    20    10    11 1   
    21    10    19 1   
    22    11    12 2   
    23    11    30 1   
    24    12    13 1   
    25    13    14 ar  
    26    13    19 ar  
    27    14    15 1   
    28    14    16 ar  
    29    15    20 1   
    30    15    31 1   
    31    16    17 ar  
    32    17    18 ar  
    33    17    32 1   
    34    18    19 ar  
    35    20    33 1   
    36    20    34 1   
    37    20    35 1   
@<TRIPOS>SUBSTRUCTURE
     1 6MD         1 TEMP              0 ****  ****    0 ROOT
