@<TRIPOS>MOLECULE
6ME
   27    28     1     0     0
SMALL
bcc


@<TRIPOS>ATOM
      1 N1           1.4080    -1.3750     0.0780 nb         1 6ME      -0.810000
      2 C2           2.3710    -0.4660     0.0900 ca         1 6ME       0.923900
      3 N3           2.2150     0.8550     0.0400 nb         1 6ME      -0.843000
      4 C4           0.9630     1.2980     0.0090 ca         1 6ME       0.732200
      5 C5          -1.5530     0.9690     0.0270 c6         1 6ME       0.000900
      6 C6          -2.6020    -0.0960     0.3440 c6         1 6ME      -0.060700
      7 C7          -2.2770    -1.3770    -0.4120 c6         1 6ME      -0.069400
      8 C8          -0.9390    -1.9430     0.0360 c6         1 6ME      -0.135700
      9 C13         -4.0010     0.4130     0.0370 c3         1 6ME      -0.087100
     10 C4A         -0.1500     0.4350     0.0400 ca         1 6ME      -0.424900
     11 C8A          0.1500    -0.9140     0.0500 ca         1 6ME       0.520600
     12 NA2          3.6530    -0.9210     0.1930 nv         1 6ME      -0.939500
     13 NA4          0.7930     2.6430    -0.0220 nv         1 6ME      -0.957500
     14 H5          -1.7760     1.4040    -0.9570 hc         1 6ME       0.037700
     15 H5A         -1.6510     1.7840     0.7510 hc         1 6ME       0.037700
     16 H6          -2.5430    -0.3110     1.4170 hc         1 6ME       0.052700
     17 H7          -3.0580    -2.1230    -0.2520 hc         1 6ME       0.043700
     18 H7A         -2.2540    -1.1760    -1.4880 hc         1 6ME       0.043700
     19 H8          -1.0300    -2.3590     1.0440 hc         1 6ME       0.065200
     20 H8A         -0.6320    -2.7770    -0.5980 hc         1 6ME       0.065200
     21 H13         -4.1150     0.6330    -1.0270 hc         1 6ME       0.033033
     22 H13A        -4.7550    -0.3290     0.3030 hc         1 6ME       0.033033
     23 H13B        -4.2260     1.3270     0.5900 hc         1 6ME       0.033033
     24 HNA2         3.8050    -1.8910    -0.0210 hn         1 6ME       0.425800
     25 HNAA         4.3850    -0.2910    -0.0790 hn         1 6ME       0.425800
     26 HNA4         1.6010     3.2020    -0.2330 hn         1 6ME       0.427300
     27 HNAB        -0.0940     3.0190    -0.3030 hn         1 6ME       0.427300
@<TRIPOS>BOND
     1     1     2 ar  
     2     1    11 ar  
     3     2     3 ar  
     4     2    12 1   
     5     3     4 ar  
     6     4    10 ar  
     7     4    13 1   
     8     5     6 1   
     9     5    10 1   
    10     5    14 1   
    11     5    15 1   
    12     6     7 1   
    13     6     9 1   
    14     6    16 1   
    15     7     8 1   
    16     7    17 1   
    17     7    18 1   
    18     8    11 1   
    19     8    19 1   
    20     8    20 1   
    21     9    21 1   
    22     9    22 1   
    23     9    23 1   
    24    10    11 ar  
    25    12    24 1   
    26    12    25 1   
    27    13    26 1   
    28    13    27 1   
@<TRIPOS>SUBSTRUCTURE
     1 6ME         1 TEMP              0 ****  ****    0 ROOT
