@<TRIPOS>MOLECULE
6ME
   27    28     1     0     0
SMALL
No Charge or Current Charge


@<TRIPOS>ATOM
      1 N1           1.4300    -1.3790     0.0870 nb         1 6ME      -0.284000
      2 C2           2.3950    -0.4510     0.1020 ca         1 6ME       0.397900
      3 N3           2.2540     0.8770     0.0820 nb         1 6ME      -0.317000
      4 C4           0.9950     1.3260     0.0500 ca         1 6ME       0.403900
      5 C5          -1.5650     0.9860    -0.0140 c6         1 6ME       0.000900
      6 C6          -2.6250    -0.0930     0.3360 c6         1 6ME      -0.060700
      7 C7          -2.3100    -1.4180    -0.4000 c6         1 6ME      -0.069400
      8 C8          -0.9370    -1.9770     0.0400 c6         1 6ME      -0.135700
      9 C13         -4.0630     0.4040     0.0330 c3         1 6ME      -0.087100
     10 C4A         -0.1170     0.4670     0.0400 ca         1 6ME      -0.294300
     11 C8A          0.1640    -0.9170     0.0500 ca         1 6ME       0.192300
     12 NA2          3.6660    -0.9130     0.1340 nv         1 6ME      -1.049900
     13 NA4          0.8750     2.6770     0.0150 nv         1 6ME      -1.067900
     14 H5          -1.7590     1.3720    -1.0250 hc         1 6ME       0.037700
     15 H5A         -1.6890     1.8370     0.6690 hc         1 6ME       0.037700
     16 H6          -2.5850    -0.2800     1.4190 hc         1 6ME       0.052700
     17 H7          -3.0920    -2.1640    -0.1990 hc         1 6ME       0.043700
     18 H7A         -2.3100    -1.2480    -1.4860 hc         1 6ME       0.043700
     19 H8          -1.0250    -2.4010     1.0490 hc         1 6ME       0.065200
     20 H8A         -0.6550    -2.8090    -0.6190 hc         1 6ME       0.065200
     21 H13         -4.2000     0.6050    -1.0370 hc         1 6ME       0.033033
     22 H13A        -4.8110    -0.3410     0.3310 hc         1 6ME       0.033033
     23 H13B        -4.2850     1.3290     0.5780 hc         1 6ME       0.033033
     24 HNA2         3.8280    -1.8960    -0.0720 hn         1 6ME       0.481000
     25 HNAA         4.4230    -0.2670    -0.0740 hn         1 6ME       0.481000
     26 HNA4         1.7070     3.2260    -0.1870 hn         1 6ME       0.482500
     27 HNAB        -0.0180     3.0820    -0.2460 hn         1 6ME       0.482500
@<TRIPOS>BOND
     1     1     2 ar  
     2     1    11 ar  
     3     2     3 ar  
     4     2    12 1   
     5     3     4 ar  
     6     4    10 ar  
     7     4    13 1   
     8     5     6 1   
     9     5    10 1   
    10     5    14 1   
    11     5    15 1   
    12     6     7 1   
    13     6     9 1   
    14     6    16 1   
    15     7     8 1   
    16     7    17 1   
    17     7    18 1   
    18     8    11 1   
    19     8    19 1   
    20     8    20 1   
    21     9    21 1   
    22     9    22 1   
    23     9    23 1   
    24    10    11 ar  
    25    12    24 1   
    26    12    25 1   
    27    13    26 1   
    28    13    27 1   
@<TRIPOS>SUBSTRUCTURE
     1 6ME         1 TEMP              0 ****  ****    0 ROOT
