@<TRIPOS>MOLECULE
6MG
   68    68     1     0     0
SMALL
abcg2


@<TRIPOS>ATOM
      1 C2          -1.8790    -1.4270     0.3560 c3         1 6MG       0.172500
      2 C3          -3.1770    -0.8480     0.9090 c          1 6MG       0.601100
      3 C7          -6.9050     2.1720    -0.2080 c3         1 6MG      -0.040000
      4 C8          -7.9050     2.1870    -1.3680 c3         1 6MG      -0.083433
      5 C12         -6.3340     3.5880    -0.0710 c3         1 6MG      -0.083433
      6 C16         -7.6580     1.8160     1.0780 c3         1 6MG      -0.083433
      7 C20         -6.2530    -0.1970    -0.9860 c3         1 6MG      -0.086100
      8 O28         -3.7620    -1.3980     1.8350 o          1 6MG      -0.636100
      9 C30         -3.1740    -3.0370    -1.2140 c3         1 6MG      -0.057700
     10 C31         -2.8650    -2.2360    -2.4760 c3         1 6MG      -0.084600
     11 C35         -3.3350    -4.5160    -1.5480 c3         1 6MG      -0.084600
     12 N1          -0.8810    -1.3510     1.4070 n7         1 6MG      -0.962500
     13 N4          -3.6080     0.2780     0.3210 ns         1 6MG      -0.509900
     14 C5          -4.8100     0.9990     0.6790 c3         1 6MG       0.099000
     15 C6          -5.7610     1.1680    -0.5130 c3         1 6MG      -0.068700
     16 C29         -2.1050    -2.8590    -0.1370 c3         1 6MG      -0.099400
     17 P44          0.7910    -1.3400     1.0380 p5         1 6MG       1.340300
     18 O45          0.9640    -1.2100    -0.4550 o          1 6MG      -0.820000
     19 C46          1.3300     0.2450     1.8140 c3         1 6MG      -0.247000
     20 C50          5.2560     1.6770    -0.5410 c3         1 6MG       0.231900
     21 C51          6.6150     1.0630    -0.6940 ca         1 6MG      -0.083300
     22 C52          7.6750     1.4810     0.1050 ca         1 6MG      -0.084500
     23 C54          8.9250     0.8880    -0.0130 ca         1 6MG      -0.121500
     24 C56          9.1260    -0.1320    -0.9340 ca         1 6MG      -0.112000
     25 C58          8.0730    -0.5550    -1.7360 ca         1 6MG      -0.121500
     26 C60          6.8250     0.0400    -1.6150 ca         1 6MG      -0.084500
     27 O68          1.4830    -2.4500     1.7950 o          1 6MG      -0.820000
     28 N47          2.7550     0.4280     1.6190 ns         1 6MG      -0.447900
     29 C48          3.2550     1.1630     0.6110 c          1 6MG       0.634100
     30 O49          4.5600     0.9030     0.4390 os         1 6MG      -0.468100
     31 O64          2.6420     1.9810    -0.0440 o          1 6MG      -0.561000
     32 H1          -1.5210    -0.8180    -0.4760 h1         1 6MG       0.079700
     33 H2          -8.4590     1.2510    -1.4420 hc         1 6MG       0.030811
     34 H3          -8.6330     2.9880    -1.2260 hc         1 6MG       0.030811
     35 H4          -7.4060     2.3570    -2.3250 hc         1 6MG       0.030811
     36 H5          -5.8160     3.8940    -0.9830 hc         1 6MG       0.030811
     37 H6          -7.1370     4.3060     0.1080 hc         1 6MG       0.030811
     38 H7          -5.6310     3.6830     0.7590 hc         1 6MG       0.030811
     39 H8          -7.0240     1.8850     1.9630 hc         1 6MG       0.030811
     40 H9          -8.4910     2.5070     1.2250 hc         1 6MG       0.030811
     41 H10         -8.0750     0.8080     1.0460 hc         1 6MG       0.030811
     42 H11         -6.7820    -0.1320    -1.9350 hc         1 6MG       0.034700
     43 H12         -5.4150    -0.8770    -1.1410 hc         1 6MG       0.034700
     44 H13         -6.9220    -0.6660    -0.2620 hc         1 6MG       0.034700
     45 H14         -4.1340    -2.6880    -0.8130 hc         1 6MG       0.038700
     46 H15         -1.9030    -2.5360    -2.9000 hc         1 6MG       0.027867
     47 H16         -3.6300    -2.3980    -3.2370 hc         1 6MG       0.027867
     48 H17         -2.8200    -1.1630    -2.2870 hc         1 6MG       0.027867
     49 H18         -2.4070    -4.9280    -1.9520 hc         1 6MG       0.027867
     50 H19         -3.5980    -5.0980    -0.6630 hc         1 6MG       0.027867
     51 H20         -4.1180    -4.6730    -2.2930 hc         1 6MG       0.027867
     52 H21         -1.1190    -1.9350     2.1980 hn         1 6MG       0.445000
     53 H22         -3.0330     0.6830    -0.4010 hn         1 6MG       0.313500
     54 H23         -5.3010     0.4480     1.4800 h1         1 6MG       0.051700
     55 H24         -4.5240     1.9710     1.0870 h1         1 6MG       0.051700
     56 H25         -5.1800     1.6110    -1.3330 hc         1 6MG       0.041700
     57 H26         -1.1460    -3.2230    -0.5180 hc         1 6MG       0.058200
     58 H27         -2.3590    -3.4830     0.7260 hc         1 6MG       0.058200
     59 H28          0.8000     1.0920     1.3820 h1         1 6MG       0.058700
     60 H29          1.1130     0.2440     2.8850 h1         1 6MG       0.058700
     61 H30          5.3360     2.7160    -0.2110 h1         1 6MG       0.048700
     62 H31          4.7180     1.6650    -1.4900 h1         1 6MG       0.048700
     63 H32          7.5240     2.2790     0.8230 ha         1 6MG       0.118500
     64 H33          9.7410     1.2230     0.6140 ha         1 6MG       0.105500
     65 H34         10.1000    -0.5940    -1.0280 ha         1 6MG       0.101000
     66 H35          8.2240    -1.3470    -2.4580 ha         1 6MG       0.105500
     67 H36          6.0090    -0.2900    -2.2470 ha         1 6MG       0.118500
     68 H38          3.3510    -0.2860     2.0100 hn         1 6MG       0.322500
@<TRIPOS>BOND
     1     1     2 1   
     2     1    12 1   
     3     1    16 1   
     4     1    32 1   
     5     2     8 2   
     6     2    13 1   
     7     3     4 1   
     8     3     5 1   
     9     3     6 1   
    10     3    15 1   
    11     4    33 1   
    12     4    34 1   
    13     4    35 1   
    14     5    36 1   
    15     5    37 1   
    16     5    38 1   
    17     6    39 1   
    18     6    40 1   
    19     6    41 1   
    20     7    15 1   
    21     7    42 1   
    22     7    43 1   
    23     7    44 1   
    24     9    10 1   
    25     9    11 1   
    26     9    16 1   
    27     9    45 1   
    28    10    46 1   
    29    10    47 1   
    30    10    48 1   
    31    11    49 1   
    32    11    50 1   
    33    11    51 1   
    34    12    17 1   
    35    12    52 1   
    36    13    14 1   
    37    13    53 1   
    38    14    15 1   
    39    14    54 1   
    40    14    55 1   
    41    15    56 1   
    42    16    57 1   
    43    16    58 1   
    44    17    18 1   
    45    17    19 1   
    46    17    27 1   
    47    19    28 1   
    48    19    59 1   
    49    19    60 1   
    50    20    21 1   
    51    20    30 1   
    52    20    61 1   
    53    20    62 1   
    54    21    22 ar  
    55    21    26 ar  
    56    22    23 ar  
    57    22    63 1   
    58    23    24 ar  
    59    23    64 1   
    60    24    25 ar  
    61    24    65 1   
    62    25    26 ar  
    63    25    66 1   
    64    26    67 1   
    65    28    29 1   
    66    28    68 1   
    67    29    30 1   
    68    29    31 2   
@<TRIPOS>SUBSTRUCTURE
     1 6MG         1 TEMP              0 ****  ****    0 ROOT
