@<TRIPOS>MOLECULE
6MG
   68    68     1     0     0
SMALL
No Charge or Current Charge


@<TRIPOS>ATOM
      1 C2          -2.0000    -0.8630    -0.3030 c3         1 6MG       0.172500
      2 C3          -3.2500    -0.2880     0.4650 c          1 6MG       0.601100
      3 C7          -7.6760     1.9460    -0.0060 c3         1 6MG      -0.040000
      4 C8          -8.9200     1.6090    -0.8810 c3         1 6MG      -0.083433
      5 C12         -7.3610     3.4550    -0.2270 c3         1 6MG      -0.083433
      6 C16         -8.0560     1.7380     1.4880 c3         1 6MG      -0.083433
      7 C20         -6.7060    -0.4790    -0.3490 c3         1 6MG      -0.086100
      8 O28         -3.5880    -0.6780     1.5790 o          1 6MG      -0.636100
      9 C30         -3.3990    -2.9880    -1.0180 c3         1 6MG      -0.057700
     10 C31         -3.7360    -2.4360    -2.4250 c3         1 6MG      -0.084600
     11 C35         -3.3700    -4.5330    -1.0320 c3         1 6MG      -0.084600
     12 N1          -0.7140    -0.4250     0.3260 n7         1 6MG      -0.962500
     13 N4          -3.9390     0.7130    -0.1960 ns         1 6MG      -0.509900
     14 C5          -5.1200     1.4160     0.3240 c3         1 6MG       0.099000
     15 C6          -6.4380     1.0530    -0.4300 c3         1 6MG      -0.068700
     16 C29         -2.0710    -2.4140    -0.4460 c3         1 6MG      -0.099400
     17 P44          0.7780    -0.6160    -0.3320 p5         1 6MG       1.340300
     18 O45          0.7780    -0.0040    -1.6900 o          1 6MG      -0.820000
     19 C46          1.7530     0.3250     0.9370 c3         1 6MG      -0.247000
     20 C50          6.2980     1.3980    -0.5920 c3         1 6MG       0.231900
     21 C51          7.6660     0.7860    -0.3200 ca         1 6MG      -0.083300
     22 C52          8.4540     1.2530     0.7510 ca         1 6MG      -0.084500
     23 C54          9.7180     0.6890     1.0000 ca         1 6MG      -0.121500
     24 C56         10.2010    -0.3450     0.1820 ca         1 6MG      -0.112000
     25 C58          9.4190    -0.8170    -0.8860 ca         1 6MG      -0.121500
     26 C60          8.1550    -0.2540    -1.1360 ca         1 6MG      -0.084500
     27 O68          1.1140    -2.0640    -0.3010 o          1 6MG      -0.820000
     28 N47          3.2380     0.2500     0.8300 ns         1 6MG      -0.447900
     29 C48          4.0170     1.0630     0.0470 c          1 6MG       0.634100
     30 O49          5.3140     0.6650     0.1570 os         1 6MG      -0.468100
     31 O64          3.6100     1.9920    -0.6320 o          1 6MG      -0.561000
     32 H1          -2.0530    -0.4400    -1.3150 h1         1 6MG       0.079700
     33 H2          -9.3130     0.6100    -0.6620 hc         1 6MG       0.030811
     34 H3          -9.7360     2.3180    -0.6930 hc         1 6MG       0.030811
     35 H4          -8.6750     1.6580    -1.9490 hc         1 6MG       0.030811
     36 H5          -7.0050     3.6370    -1.2480 hc         1 6MG       0.030811
     37 H6          -8.2560     4.0700    -0.0710 hc         1 6MG       0.030811
     38 H7          -6.6020     3.8200     0.4740 hc         1 6MG       0.030811
     39 H8          -7.2280     2.0040     2.1540 hc         1 6MG       0.030811
     40 H9          -8.9120     2.3670     1.7600 hc         1 6MG       0.030811
     41 H10         -8.3360     0.6980     1.6900 hc         1 6MG       0.030811
     42 H11         -7.5880    -0.7730    -0.9280 hc         1 6MG       0.034700
     43 H12         -5.8660    -1.0420    -0.7670 hc         1 6MG       0.034700
     44 H13         -6.8450    -0.8060     0.6880 hc         1 6MG       0.034700
     45 H14         -4.2150    -2.7000    -0.3450 hc         1 6MG       0.038700
     46 H15         -2.9320    -2.6630    -3.1360 hc         1 6MG       0.027867
     47 H16         -4.6620    -2.8840    -2.8030 hc         1 6MG       0.027867
     48 H17         -3.8810    -1.3500    -2.4040 hc         1 6MG       0.027867
     49 H18         -2.5790    -4.9040    -1.6950 hc         1 6MG       0.027867
     50 H19         -3.1880    -4.9270    -0.0240 hc         1 6MG       0.027867
     51 H20         -4.3290    -4.9360    -1.3810 hc         1 6MG       0.027867
     52 H21         -0.5920    -0.9520     1.1870 hn         1 6MG       0.445000
     53 H22         -3.5770     0.9950    -1.0990 hn         1 6MG       0.313500
     54 H23         -5.2340     1.1990     1.3930 h1         1 6MG       0.051700
     55 H24         -4.9140     2.4880     0.2260 h1         1 6MG       0.051700
     56 H25         -6.2490     1.2700    -1.4890 hc         1 6MG       0.041700
     57 H26         -1.2570    -2.7520    -1.0970 hc         1 6MG       0.058200
     58 H27         -1.8920    -2.8640     0.5390 hc         1 6MG       0.058200
     59 H28          1.4340     1.3720     0.8650 h1         1 6MG       0.058700
     60 H29          1.4530    -0.0600     1.9180 h1         1 6MG       0.058700
     61 H30          6.3040     2.4550    -0.2950 h1         1 6MG       0.048700
     62 H31          6.0820     1.3500    -1.6680 h1         1 6MG       0.048700
     63 H32          8.0860     2.0520     1.3910 ha         1 6MG       0.118500
     64 H33         10.3210     1.0540     1.8280 ha         1 6MG       0.105500
     65 H34         11.1780    -0.7810     0.3750 ha         1 6MG       0.101000
     66 H35          9.7910    -1.6190    -1.5200 ha         1 6MG       0.105500
     67 H36          7.5550    -0.6270    -1.9640 ha         1 6MG       0.118500
     68 H38          3.7360    -0.4860     1.3190 hn         1 6MG       0.322500
@<TRIPOS>BOND
     1     1     2 1   
     2     1    12 1   
     3     1    16 1   
     4     1    32 1   
     5     2     8 2   
     6     2    13 1   
     7     3     4 1   
     8     3     5 1   
     9     3     6 1   
    10     3    15 1   
    11     4    33 1   
    12     4    34 1   
    13     4    35 1   
    14     5    36 1   
    15     5    37 1   
    16     5    38 1   
    17     6    39 1   
    18     6    40 1   
    19     6    41 1   
    20     7    15 1   
    21     7    42 1   
    22     7    43 1   
    23     7    44 1   
    24     9    10 1   
    25     9    11 1   
    26     9    16 1   
    27     9    45 1   
    28    10    46 1   
    29    10    47 1   
    30    10    48 1   
    31    11    49 1   
    32    11    50 1   
    33    11    51 1   
    34    12    17 1   
    35    12    52 1   
    36    13    14 1   
    37    13    53 1   
    38    14    15 1   
    39    14    54 1   
    40    14    55 1   
    41    15    56 1   
    42    16    57 1   
    43    16    58 1   
    44    17    18 1   
    45    17    19 1   
    46    17    27 1   
    47    19    28 1   
    48    19    59 1   
    49    19    60 1   
    50    20    21 1   
    51    20    30 1   
    52    20    61 1   
    53    20    62 1   
    54    21    22 ar  
    55    21    26 ar  
    56    22    23 ar  
    57    22    63 1   
    58    23    24 ar  
    59    23    64 1   
    60    24    25 ar  
    61    24    65 1   
    62    25    26 ar  
    63    25    66 1   
    64    26    67 1   
    65    28    29 1   
    66    28    68 1   
    67    29    30 1   
    68    29    31 2   
@<TRIPOS>SUBSTRUCTURE
     1 6MG         1 TEMP              0 ****  ****    0 ROOT
