@<TRIPOS>MOLECULE
6MH
   16    16     1     0     0
SMALL
No Charge or Current Charge


@<TRIPOS>ATOM
      1 C6           2.5330     1.2870    -0.0730 c3         1 6MH      -0.058900
      2 C5           1.4830     0.1990    -0.0360 cc         1 6MH       0.076400
      3 C4           1.8370    -1.1290    -0.1880 cd         1 6MH      -0.265000
      4 C3           0.8270    -2.1440    -0.1410 cd         1 6MH      -0.094000
      5 C2          -0.4780    -1.7510     0.0570 cc         1 6MH      -0.248200
      6 C1          -0.8790    -0.3820     0.2180 cs         1 6MH       0.326600
      7 S1          -2.4980     0.0180     0.4370 s          1 6MH      -0.636400
      8 N1           0.1400     0.5680     0.1630 n          1 6MH      -0.006500
      9 O1          -0.1820     1.9630     0.3180 oh         1 6MH      -0.454100
     10 H1           2.5260     1.8720     0.8550 hc         1 6MH       0.068700
     11 H2           3.5410     0.8730    -0.1900 hc         1 6MH       0.068700
     12 H3           2.3600     1.9720    -0.9110 hc         1 6MH       0.068700
     13 H4           2.8770    -1.4070    -0.3420 ha         1 6MH       0.208000
     14 H5           1.0820    -3.1970    -0.2590 ha         1 6MH       0.199000
     15 H6          -1.2750    -2.4870     0.0970 ha         1 6MH       0.226000
     16 H7          -0.4650     2.2440    -0.5810 ho         1 6MH       0.523000
@<TRIPOS>BOND
     1     1     2 1   
     2     1    10 1   
     3     1    11 1   
     4     1    12 1   
     5     2     3 2   
     6     2     8 1   
     7     3     4 1   
     8     3    13 1   
     9     4     5 2   
    10     4    14 1   
    11     5     6 1   
    12     5    15 1   
    13     6     7 2   
    14     6     8 1   
    15     8     9 1   
    16     9    16 1   
@<TRIPOS>SUBSTRUCTURE
     1 6MH         1 TEMP              0 ****  ****    0 ROOT
