@<TRIPOS>MOLECULE
6MH
   16    16     1     0     0
SMALL
bcc


@<TRIPOS>ATOM
      1 C6           2.5660     1.2750    -0.0590 c3         1 6MH      -0.058900
      2 C5           1.5420     0.1940    -0.0530 cc         1 6MH       0.076400
      3 C4           1.8470    -1.1440    -0.1010 cd         1 6MH      -0.215000
      4 C3           0.8210    -2.0900    -0.0890 cd         1 6MH      -0.044000
      5 C2          -0.4890    -1.6880    -0.0310 cc         1 6MH      -0.198200
      6 C1          -0.8250    -0.3260     0.0170 cs         1 6MH       0.393600
      7 S1          -2.3930     0.3130     0.0880 s          1 6MH      -0.636400
      8 N1           0.2360     0.5400     0.0030 n          1 6MH      -0.073500
      9 O1          -0.0200     1.8620     0.0490 oh         1 6MH      -0.415100
     10 H1           2.5060     1.8870     0.8410 hc         1 6MH       0.068700
     11 H2           3.5560     0.8300    -0.1050 hc         1 6MH       0.068700
     12 H3           2.4460     1.9360    -0.9180 hc         1 6MH       0.068700
     13 H4           2.8840    -1.4410    -0.1490 ha         1 6MH       0.158000
     14 H5           1.0600    -3.1440    -0.1270 ha         1 6MH       0.149000
     15 H6          -1.2960    -2.4050    -0.0220 ha         1 6MH       0.176000
     16 H7          -1.0120     1.9010     0.0810 ho         1 6MH       0.484000
@<TRIPOS>BOND
     1     1     2 1   
     2     1    10 1   
     3     1    11 1   
     4     1    12 1   
     5     2     3 2   
     6     2     8 1   
     7     3     4 1   
     8     3    13 1   
     9     4     5 2   
    10     4    14 1   
    11     5     6 1   
    12     5    15 1   
    13     6     7 2   
    14     6     8 1   
    15     8     9 1   
    16     9    16 1   
@<TRIPOS>SUBSTRUCTURE
     1 6MH         1 TEMP              0 ****  ****    0 ROOT
