@<TRIPOS>MOLECULE
6MJ
   23    23     1     0     0
SMALL
abcg2


@<TRIPOS>ATOM
      1 C01         -3.4300     0.5890     0.2060 c3         1 6MJ       0.150900
      2 O02         -2.3560    -0.1310    -0.3690 os         1 6MJ      -0.448000
      3 C03         -1.1170     0.1620     0.1560 c6         1 6MJ       0.348300
      4 C04         -0.1550    -0.9580    -0.2470 c6         1 6MJ       0.156300
      5 C05          1.2460    -0.6160     0.2350 c6         1 6MJ       0.181300
      6 C06          1.6340     0.7760    -0.2500 c6         1 6MJ       0.089300
      7 C07          0.5620     1.7820     0.1570 c6         1 6MJ       0.136600
      8 O08         -0.6930     1.3990    -0.3580 os         1 6MJ      -0.472000
      9 O09          2.8800     1.0930     0.3290 oh         1 6MJ      -0.722000
     10 O10          2.1310    -1.6010    -0.2330 oh         1 6MJ      -0.640000
     11 O11         -0.5350    -2.1790     0.3320 oh         1 6MJ      -0.699000
     12 H1          -4.3520     0.1800    -0.2030 h1         1 6MJ       0.037700
     13 H2          -3.4490     0.4730     1.2950 h1         1 6MJ       0.037700
     14 H3          -3.3870     1.6550    -0.0270 h1         1 6MJ       0.037700
     15 H4          -1.1630     0.2200     1.2620 h2         1 6MJ       0.033700
     16 H5          -0.1470    -1.0190    -1.3470 h1         1 6MJ       0.064700
     17 H6           1.2320    -0.5930     1.3390 h1         1 6MJ       0.052700
     18 H7           1.7040     0.7580    -1.3460 h1         1 6MJ       0.057700
     19 H8           0.5330     1.8660     1.2540 h1         1 6MJ       0.055700
     20 H9           0.7900     2.7710    -0.2440 h1         1 6MJ       0.055700
     21 H10          3.2810     1.8080    -0.1730 ho         1 6MJ       0.512000
     22 H11          3.0170    -1.3650     0.0610 ho         1 6MJ       0.457000
     23 H12         -1.3910    -2.4280    -0.0320 ho         1 6MJ       0.517000
@<TRIPOS>BOND
     1     1     2 1   
     2     1    12 1   
     3     1    13 1   
     4     1    14 1   
     5     2     3 1   
     6     3     4 1   
     7     3     8 1   
     8     3    15 1   
     9     4     5 1   
    10     4    11 1   
    11     4    16 1   
    12     5     6 1   
    13     5    10 1   
    14     5    17 1   
    15     6     7 1   
    16     6     9 1   
    17     6    18 1   
    18     7     8 1   
    19     7    19 1   
    20     7    20 1   
    21     9    21 1   
    22    10    22 1   
    23    11    23 1   
@<TRIPOS>SUBSTRUCTURE
     1 6MJ         1 TEMP              0 ****  ****    0 ROOT
