@<TRIPOS>MOLECULE
6MJ
   23    23     1     0     0
SMALL
No Charge or Current Charge


@<TRIPOS>ATOM
      1 C01         -3.5050     0.6590     0.1820 c3         1 6MJ       0.150900
      2 O02         -2.4610    -0.2190    -0.2730 os         1 6MJ      -0.448000
      3 C03         -1.1350     0.0690     0.2040 c6         1 6MJ       0.348300
      4 C04         -0.1420    -1.0560    -0.2410 c6         1 6MJ       0.156300
      5 C05          1.2940    -0.6780     0.2560 c6         1 6MJ       0.181300
      6 C06          1.6810     0.7520    -0.2360 c6         1 6MJ       0.089300
      7 C07          0.5780     1.7680     0.1820 c6         1 6MJ       0.136600
      8 O08         -0.7060     1.3390    -0.3240 os         1 6MJ      -0.472000
      9 O09          2.9760     1.1260     0.2840 oh         1 6MJ      -0.722000
     10 O10          2.2930    -1.6100    -0.1990 oh         1 6MJ      -0.640000
     11 O11         -0.5700    -2.3550     0.2450 oh         1 6MJ      -0.699000
     12 H1          -4.4750     0.3360    -0.2160 h1         1 6MJ       0.037700
     13 H2          -3.5670     0.6570     1.2780 h1         1 6MJ       0.037700
     14 H3          -3.3270     1.6890    -0.1540 h1         1 6MJ       0.037700
     15 H4          -1.1540     0.1190     1.3040 h2         1 6MJ       0.033700
     16 H5          -0.1260    -1.0610    -1.3410 h1         1 6MJ       0.064700
     17 H6           1.2770    -0.6650     1.3560 h1         1 6MJ       0.052700
     18 H7           1.7150     0.7350    -1.3360 h1         1 6MJ       0.057700
     19 H8           0.5280     1.8560     1.2770 h1         1 6MJ       0.055700
     20 H9           0.8050     2.7610    -0.2320 h1         1 6MJ       0.055700
     21 H10          3.2350     1.9770    -0.1450 ho         1 6MJ       0.512000
     22 H11          3.1440    -1.1280    -0.0820 ho         1 6MJ       0.457000
     23 H12         -1.5250    -2.4300     0.0090 ho         1 6MJ       0.517000
@<TRIPOS>BOND
     1     1     2 1   
     2     1    12 1   
     3     1    13 1   
     4     1    14 1   
     5     2     3 1   
     6     3     4 1   
     7     3     8 1   
     8     3    15 1   
     9     4     5 1   
    10     4    11 1   
    11     4    16 1   
    12     5     6 1   
    13     5    10 1   
    14     5    17 1   
    15     6     7 1   
    16     6     9 1   
    17     6    18 1   
    18     7     8 1   
    19     7    19 1   
    20     7    20 1   
    21     9    21 1   
    22    10    22 1   
    23    11    23 1   
@<TRIPOS>SUBSTRUCTURE
     1 6MJ         1 TEMP              0 ****  ****    0 ROOT
