@<TRIPOS>MOLECULE
6MK
   38    39     1     0     0
SMALL
abcg2


@<TRIPOS>ATOM
      1 OAA          6.9000    -1.9990    -0.1430 o          1 6MK      -0.714000
      2 CAS          6.8890    -0.8970     0.4370 c          1 6MK       0.694200
      3 OAD          7.8300    -0.3480     1.0410 o          1 6MK      -0.714000
      4 CAE          5.5920    -0.1100     0.4180 ce         1 6MK      -0.157200
      5 CAF          4.4920    -0.5270    -0.2030 cf         1 6MK      -0.355200
      6 CAT          3.2480     0.2720    -0.2030 c          1 6MK       0.611300
      7 OAB          3.1180     1.3550     0.3380 o          1 6MK      -0.619100
      8 NAQ          2.2300    -0.3180    -0.8880 ns         1 6MK      -0.391500
      9 NAR          1.0060     0.2640    -0.9360 ns         1 6MK      -0.362500
     10 CAU          0.1790     0.2310     0.1390 c          1 6MK       0.616700
     11 OAC          0.3710    -0.4720     1.1090 o          1 6MK      -0.564100
     12 CAX         -0.9900     1.1500     0.0210 ca         1 6MK      -0.204600
     13 CAN         -0.7570     2.5000    -0.2150 ca         1 6MK       0.362900
     14 NAP         -1.7120     3.4170    -0.2660 nb         1 6MK      -0.672000
     15 CAJ         -2.9570     2.9980    -0.0860 ca         1 6MK       0.341900
     16 CAM         -3.2970     1.6740     0.1520 ca         1 6MK      -0.176000
     17 CAW         -2.3030     0.7070     0.2200 ca         1 6MK       0.007700
     18 CAO         -2.6170    -0.7450     0.4930 c3         1 6MK       0.000200
     19 CAV         -4.0550    -1.1170     0.2640 ca         1 6MK      -0.075300
     20 CAK         -4.5330    -1.3060    -1.0320 ca         1 6MK      -0.104000
     21 CAH         -5.8610    -1.6370    -1.2570 ca         1 6MK      -0.113000
     22 CAG         -6.7340    -1.7840    -0.1850 ca         1 6MK      -0.115000
     23 CAI         -6.2680    -1.5990     1.1090 ca         1 6MK      -0.113000
     24 CAL         -4.9360    -1.2660     1.3290 ca         1 6MK      -0.104000
     25 HAE          5.5800     0.8410     0.9430 ha         1 6MK       0.167000
     26 HAF          4.4920    -1.4750    -0.7310 ha         1 6MK       0.191000
     27 HAQ          2.3190    -1.2440    -1.2770 hn         1 6MK       0.338500
     28 HAR          0.8230     0.8870    -1.7090 hn         1 6MK       0.325500
     29 HAN          0.2600     2.8560    -0.3480 h4         1 6MK       0.041100
     30 HAJ         -3.7350     3.7510    -0.1340 h4         1 6MK       0.013100
     31 HAM         -4.3380     1.4130     0.2810 ha         1 6MK       0.127000
     32 HAO1        -1.9770    -1.3710    -0.1330 hc         1 6MK       0.079200
     33 HAO2        -2.3290    -0.9670     1.5230 hc         1 6MK       0.079200
     34 HAK         -3.8580    -1.1940    -1.8730 ha         1 6MK       0.115500
     35 HAL         -4.5810    -1.1200     2.3430 ha         1 6MK       0.115500
     36 HAH         -6.2150    -1.7840    -2.2690 ha         1 6MK       0.109000
     37 HAG         -7.7700    -2.0430    -0.3590 ha         1 6MK       0.107000
     38 HAI         -6.9390    -1.7130     1.9500 ha         1 6MK       0.109000
@<TRIPOS>BOND
     1     1     2 1   
     2     2     3 1   
     3     2     4 1   
     4     4     5 2   
     5     4    25 1   
     6     5     6 1   
     7     5    26 1   
     8     6     7 2   
     9     6     8 1   
    10     8     9 1   
    11     8    27 1   
    12     9    10 1   
    13     9    28 1   
    14    10    11 2   
    15    10    12 1   
    16    12    13 ar  
    17    12    17 ar  
    18    13    14 ar  
    19    13    29 1   
    20    14    15 ar  
    21    15    16 ar  
    22    15    30 1   
    23    16    17 ar  
    24    16    31 1   
    25    17    18 1   
    26    18    19 1   
    27    18    32 1   
    28    18    33 1   
    29    19    20 ar  
    30    19    24 ar  
    31    20    21 ar  
    32    20    34 1   
    33    21    22 ar  
    34    21    36 1   
    35    22    23 ar  
    36    22    37 1   
    37    23    24 ar  
    38    23    38 1   
    39    24    35 1   
@<TRIPOS>SUBSTRUCTURE
     1 6MK         1 TEMP              0 ****  ****    0 ROOT
