@<TRIPOS>MOLECULE
6MK
   38    39     1     0     0
SMALL
No Charge or Current Charge


@<TRIPOS>ATOM
      1 OAA          7.1420    -2.0000    -0.2580 o          1 6MK      -0.714000
      2 CAS          6.9910    -1.2080     0.6610 c          1 6MK       0.694200
      3 OAD          7.8220    -1.0300     1.5380 o          1 6MK      -0.714000
      4 CAE          5.7260    -0.4080     0.7270 ce         1 6MK      -0.157200
      5 CAF          4.6770    -0.4640    -0.1590 cf         1 6MK      -0.355200
      6 CAT          3.4430     0.3520    -0.0480 c          1 6MK       0.611300
      7 OAB          3.2650     1.1570     0.8560 o          1 6MK      -0.619100
      8 NAQ          2.5150     0.1430    -1.0510 ns         1 6MK      -0.391500
      9 NAR          1.2130     0.7370    -1.0690 ns         1 6MK      -0.362500
     10 CAU          0.1670     0.3370    -0.2440 c          1 6MK       0.616700
     11 OAC          0.2760    -0.6470     0.4760 o          1 6MK      -0.564100
     12 CAX         -1.0690     1.2070    -0.2570 ca         1 6MK      -0.204600
     13 CAN         -0.9250     2.5710    -0.5830 ca         1 6MK       0.362900
     14 NAP         -1.9470     3.4550    -0.5930 nb         1 6MK      -0.672000
     15 CAJ         -3.1720     3.0020    -0.2660 ca         1 6MK       0.341900
     16 CAM         -3.4210     1.6670     0.0750 ca         1 6MK      -0.176000
     17 CAW         -2.3670     0.7280     0.0780 ca         1 6MK       0.007700
     18 CAO         -2.6470    -0.7470     0.4120 c3         1 6MK       0.000200
     19 CAV         -4.1140    -1.1550     0.3040 ca         1 6MK      -0.075300
     20 CAK         -4.6910    -1.3900    -0.9590 ca         1 6MK      -0.104000
     21 CAH         -6.0430    -1.7600    -1.0640 ca         1 6MK      -0.113000
     22 CAG         -6.8260    -1.8980     0.0940 ca         1 6MK      -0.115000
     23 CAI         -6.2570    -1.6640     1.3570 ca         1 6MK      -0.113000
     24 CAL         -4.9050    -1.2940     1.4620 ca         1 6MK      -0.104000
     25 HAE          5.6690     0.2730     1.5740 ha         1 6MK       0.167000
     26 HAF          4.7380    -1.1470    -1.0050 ha         1 6MK       0.191000
     27 HAQ          2.7100    -0.5740    -1.7450 hn         1 6MK       0.338500
     28 HAR          1.0970     1.5690    -1.6400 hn         1 6MK       0.325500
     29 HAN          0.0480     2.9960    -0.8250 h4         1 6MK       0.041100
     30 HAJ         -3.9790     3.7330    -0.2760 h4         1 6MK       0.013100
     31 HAM         -4.4380     1.3820     0.3280 ha         1 6MK       0.127000
     32 HAO1        -2.0720    -1.3920    -0.2620 hc         1 6MK       0.079200
     33 HAO2        -2.2740    -0.9640     1.4200 hc         1 6MK       0.079200
     34 HAK         -4.0910    -1.2830    -1.8610 ha         1 6MK       0.115500
     35 HAL         -4.4740    -1.1130     2.4450 ha         1 6MK       0.115500
     36 HAH         -6.4830    -1.9390    -2.0430 ha         1 6MK       0.109000
     37 HAG         -7.8730    -2.1830     0.0130 ha         1 6MK       0.107000
     38 HAI         -6.8630    -1.7690     2.2540 ha         1 6MK       0.109000
@<TRIPOS>BOND
     1     1     2 1   
     2     2     3 1   
     3     2     4 1   
     4     4     5 2   
     5     4    25 1   
     6     5     6 1   
     7     5    26 1   
     8     6     7 2   
     9     6     8 1   
    10     8     9 1   
    11     8    27 1   
    12     9    10 1   
    13     9    28 1   
    14    10    11 2   
    15    10    12 1   
    16    12    13 ar  
    17    12    17 ar  
    18    13    14 ar  
    19    13    29 1   
    20    14    15 ar  
    21    15    16 ar  
    22    15    30 1   
    23    16    17 ar  
    24    16    31 1   
    25    17    18 1   
    26    18    19 1   
    27    18    32 1   
    28    18    33 1   
    29    19    20 ar  
    30    19    24 ar  
    31    20    21 ar  
    32    20    34 1   
    33    21    22 ar  
    34    21    36 1   
    35    22    23 ar  
    36    22    37 1   
    37    23    24 ar  
    38    23    38 1   
    39    24    35 1   
@<TRIPOS>SUBSTRUCTURE
     1 6MK         1 TEMP              0 ****  ****    0 ROOT
