@<TRIPOS>MOLECULE
6MM
   59    64     1     0     0
SMALL
abcg2


@<TRIPOS>ATOM
      1 C1          -3.0730    -2.4390    -0.1470 c5         1 6MM       0.399000
      2 C2          -1.7310    -2.8890    -0.6920 c3         1 6MM      -0.108600
      3 C3          -4.8040    -1.2410    -1.0150 c5         1 6MM       0.157600
      4 C4          -3.8310    -0.2620    -0.3760 c5         1 6MM       0.339000
      5 C5          -2.5650     1.6110    -0.7850 c5         1 6MM       0.149300
      6 C6          -1.2200     1.3490    -0.1160 c3         1 6MM       0.198800
      7 C10          5.1300    -0.1120     0.7560 ca         1 6MM      -0.231600
      8 C13          5.1650    -1.0340    -0.3200 ca         1 6MM       0.216400
      9 C11          6.3280     0.0750     1.5490 c          1 6MM       0.593600
     10 N2           7.3940    -0.6990     1.1440 ns         1 6MM      -0.453400
     11 C12          7.3500    -1.5670     0.0860 cc         1 6MM       0.707800
     12 N3           8.4730    -2.2800    -0.1440 nv         1 6MM      -1.039200
     13 N4           6.2950    -1.7460    -0.6380 nd         1 6MM      -0.702100
     14 C9           3.9710     0.6150     1.0670 ca         1 6MM      -0.025000
     15 C14          4.0180    -1.2350    -1.0980 ca         1 6MM      -0.096000
     16 C15          2.8700    -0.5220    -0.7960 ca         1 6MM       0.160400
     17 C8           2.8700     0.3950     0.2860 ca         1 6MM      -0.122200
     18 N1           1.5920     0.9150     0.2960 na         1 6MM      -0.356600
     19 N5           1.6440    -0.5450    -1.3990 nc         1 6MM      -0.661100
     20 C7           0.9170     0.3230    -0.7250 cd         1 6MM       0.676700
     21 N           -0.3570     0.6290    -1.0210 nu         1 6MM      -0.878400
     22 O1          -3.1260     0.4440    -1.3640 os         1 6MM      -0.437000
     23 C16         -3.6030     2.0840     0.2280 c5         1 6MM       0.114300
     24 C20         -4.4170     0.8160     0.5450 c5         1 6MM       0.127300
     25 O4          -5.7250     1.1280     0.1380 os         1 6MM      -0.463000
     26 C17         -5.8300     2.5290    -0.0290 c5         1 6MM       0.399000
     27 C18         -6.7770     2.8200    -1.1720 c3         1 6MM      -0.110600
     28 C19         -6.2730     3.1880     1.2720 c3         1 6MM      -0.110600
     29 O3          -4.5310     2.9430    -0.3880 os         1 6MM      -0.455000
     30 O           -4.0030    -2.3830    -1.2050 os         1 6MM      -0.457000
     31 O5          -2.9840    -1.1030     0.3480 os         1 6MM      -0.501000
     32 C           -3.5640    -3.3390     0.9760 c3         1 6MM      -0.108600
     33 H1          -1.4200    -2.2680    -1.5330 hc         1 6MM       0.053867
     34 H2          -0.9670    -2.8310     0.0820 hc         1 6MM       0.053867
     35 H3          -1.7840    -3.9220    -1.0350 hc         1 6MM       0.053867
     36 H4          -5.6530    -1.4400    -0.3500 h1         1 6MM       0.078700
     37 H5          -5.1890    -0.9020    -1.9760 h1         1 6MM       0.078700
     38 H6          -2.4270     2.3380    -1.5890 h1         1 6MM       0.110700
     39 H7          -0.7860     2.3250     0.1170 h1         1 6MM       0.045700
     40 H8          -1.3440     0.8200     0.8350 h1         1 6MM       0.045700
     41 H10          9.3570    -1.9480     0.2040 hn         1 6MM       0.488500
     42 H11          8.5170    -2.7680    -1.0230 hn         1 6MM       0.488500
     43 H12          3.9650     1.3160     1.8910 ha         1 6MM       0.134000
     44 H13          4.0430    -1.9390    -1.9190 ha         1 6MM       0.145000
     45 H14          1.2360     1.6060     0.9350 hn         1 6MM       0.355000
     46 H16         -0.8020    -0.0180    -1.6540 hn         1 6MM       0.524000
     47 H17         -3.1490     2.5440     1.1120 h1         1 6MM       0.074700
     48 H18         -4.3800     0.5130     1.5950 h1         1 6MM       0.091700
     49 H19         -7.7810     2.4710    -0.9320 hc         1 6MM       0.054200
     50 H20         -6.8330     3.8920    -1.3570 hc         1 6MM       0.054200
     51 H21         -6.4460     2.3260    -2.0860 hc         1 6MM       0.054200
     52 H22         -5.5850     2.9690     2.0920 hc         1 6MM       0.054200
     53 H23         -6.3240     4.2700     1.1550 hc         1 6MM       0.054200
     54 H24         -7.2630     2.8330     1.5600 hc         1 6MM       0.054200
     55 H25         -3.6700    -4.3630     0.6190 hc         1 6MM       0.053867
     56 H26         -2.8520    -3.3470     1.8020 hc         1 6MM       0.053867
     57 H27         -4.5280    -3.0070     1.3640 hc         1 6MM       0.053867
     58 H9           8.2480    -0.6100     1.6790 hn         1 6MM       0.322500
     59 O2           6.4420     0.8330     2.5020 o          1 6MM      -0.554000
@<TRIPOS>BOND
     1     1     2 1   
     2     1    30 1   
     3     1    31 1   
     4     1    32 1   
     5     2    33 1   
     6     2    34 1   
     7     2    35 1   
     8     3     4 1   
     9     3    30 1   
    10     3    36 1   
    11     3    37 1   
    12     4    22 1   
    13     4    24 1   
    14     4    31 1   
    15     5     6 1   
    16     5    22 1   
    17     5    23 1   
    18     5    38 1   
    19     6    21 1   
    20     6    39 1   
    21     6    40 1   
    22     7     8 ar  
    23     7     9 1   
    24     7    14 ar  
    25     8    13 1   
    26     8    15 ar  
    27     9    10 1   
    28     9    59 2   
    29    10    11 1   
    30    10    58 1   
    31    11    12 1   
    32    11    13 2   
    33    12    41 1   
    34    12    42 1   
    35    14    17 ar  
    36    14    43 1   
    37    15    16 ar  
    38    15    44 1   
    39    16    17 ar  
    40    16    19 1   
    41    17    18 1   
    42    18    20 1   
    43    18    45 1   
    44    19    20 2   
    45    20    21 1   
    46    21    46 1   
    47    23    24 1   
    48    23    29 1   
    49    23    47 1   
    50    24    25 1   
    51    24    48 1   
    52    25    26 1   
    53    26    27 1   
    54    26    28 1   
    55    26    29 1   
    56    27    49 1   
    57    27    50 1   
    58    27    51 1   
    59    28    52 1   
    60    28    53 1   
    61    28    54 1   
    62    32    55 1   
    63    32    56 1   
    64    32    57 1   
@<TRIPOS>SUBSTRUCTURE
     1 6MM         1 TEMP              0 ****  ****    0 ROOT
