@<TRIPOS>MOLECULE
6MM
   59    64     1     0     0
SMALL
No Charge or Current Charge


@<TRIPOS>ATOM
      1 C1          -1.6050    -1.5780     0.5730 c5         1 6MM       0.399000
      2 C2          -0.1380    -2.0150     0.7350 c3         1 6MM      -0.108600
      3 C3          -3.2840    -1.3650    -0.9900 c5         1 6MM       0.157600
      4 C4          -2.8470     0.0590    -0.4990 c5         1 6MM       0.339000
      5 C5          -2.6380     2.2920    -1.1390 c5         1 6MM       0.149300
      6 C6          -1.2860     2.7620    -0.5140 c3         1 6MM       0.198800
      7 C10          4.1350    -0.9910     0.6590 ca         1 6MM      -0.231600
      8 C13          4.3670    -1.1840    -0.7270 ca         1 6MM       0.216400
      9 C11          5.0000    -1.7110     1.6250 c          1 6MM       0.593600
     10 N2           5.9400    -2.4810     1.0420 ns         1 6MM      -0.453400
     11 C12          6.0850    -2.5990    -0.2900 cc         1 6MM       0.707800
     12 N3           7.0580    -3.3950    -0.6950 nv         1 6MM      -1.039200
     13 N4           5.3800    -2.0200    -1.2300 nd         1 6MM      -0.702100
     14 C9           3.1010    -0.1360     1.1060 ca         1 6MM      -0.025000
     15 C14          3.5510    -0.5120    -1.6620 ca         1 6MM      -0.096000
     16 C15          2.5300     0.3280    -1.2050 ca         1 6MM       0.160400
     17 C8           2.3250     0.5030     0.1350 ca         1 6MM      -0.122200
     18 N1           1.2710     1.3600     0.2990 na         1 6MM      -0.356600
     19 N5           1.6250     1.0580    -1.9610 nc         1 6MM      -0.661100
     20 C7           0.8950     1.6300    -1.0080 cd         1 6MM       0.676700
     21 N           -0.1150     2.4450    -1.3570 nu         1 6MM      -0.878400
     22 O1          -2.5500     0.9210    -1.6120 os         1 6MM      -0.437000
     23 C16         -3.8220     2.2730    -0.1140 c5         1 6MM       0.114300
     24 C20         -3.9420     0.7890     0.3600 c5         1 6MM       0.127300
     25 O4          -5.2790     0.3940    -0.0550 os         1 6MM      -0.463000
     26 C17         -6.0240     1.6090    -0.2330 c5         1 6MM       0.399000
     27 C18         -7.1790     1.3680    -1.2200 c3         1 6MM      -0.110600
     28 C19         -6.5430     2.1490     1.1260 c3         1 6MM      -0.110600
     29 O3          -5.0650     2.5030    -0.8200 os         1 6MM      -0.455000
     30 O           -2.1650    -2.1970    -0.5960 os         1 6MM      -0.457000
     31 O5          -1.6520    -0.1720     0.2810 os         1 6MM      -0.501000
     32 C           -2.4310    -1.9170     1.8430 c3         1 6MM      -0.108600
     33 H1           0.4400    -1.7810    -0.1660 hc         1 6MM       0.053867
     34 H2           0.3340    -1.5030     1.5810 hc         1 6MM       0.053867
     35 H3          -0.0640    -3.0940     0.9100 hc         1 6MM       0.053867
     36 H4          -4.1940    -1.7320    -0.5000 h1         1 6MM       0.078700
     37 H5          -3.4240    -1.4140    -2.0780 h1         1 6MM       0.078700
     38 H6          -2.8610     2.9470    -1.9910 h1         1 6MM       0.110700
     39 H7          -1.3400     3.8490    -0.3610 h1         1 6MM       0.045700
     40 H8          -1.1800     2.3130     0.4820 h1         1 6MM       0.045700
     41 H10          7.8680    -3.4680    -0.0920 hn         1 6MM       0.488500
     42 H11          7.2600    -3.3240    -1.6850 hn         1 6MM       0.488500
     43 H12          2.9100     0.0200     2.1660 ha         1 6MM       0.134000
     44 H13          3.7090    -0.6470    -2.7280 ha         1 6MM       0.145000
     45 H14          0.8360     1.7010     1.1420 hn         1 6MM       0.355000
     46 H16         -0.2820     2.3570    -2.3560 hn         1 6MM       0.524000
     47 H17         -3.7100     2.9910     0.7090 h1         1 6MM       0.074700
     48 H18         -3.8130     0.6670     1.4440 h1         1 6MM       0.091700
     49 H19         -7.8880     0.6320    -0.8240 hc         1 6MM       0.054200
     50 H20         -7.7290     2.2960    -1.4160 hc         1 6MM       0.054200
     51 H21         -6.8010     0.9910    -2.1780 hc         1 6MM       0.054200
     52 H22         -5.7460     2.2800     1.8650 hc         1 6MM       0.054200
     53 H23         -7.0350     3.1200     0.9940 hc         1 6MM       0.054200
     54 H24         -7.2810     1.4630     1.5580 hc         1 6MM       0.054200
     55 H25         -2.3420    -2.9820     2.0880 hc         1 6MM       0.053867
     56 H26         -2.0640    -1.3500     2.7050 hc         1 6MM       0.053867
     57 H27         -3.4980    -1.6990     1.7320 hc         1 6MM       0.053867
     58 H9           6.5380    -3.0090     1.6550 hn         1 6MM       0.322500
     59 O2           4.8890    -1.6320     2.8380 o          1 6MM      -0.554000
@<TRIPOS>BOND
     1     1     2 1   
     2     1    30 1   
     3     1    31 1   
     4     1    32 1   
     5     2    33 1   
     6     2    34 1   
     7     2    35 1   
     8     3     4 1   
     9     3    30 1   
    10     3    36 1   
    11     3    37 1   
    12     4    22 1   
    13     4    24 1   
    14     4    31 1   
    15     5     6 1   
    16     5    22 1   
    17     5    23 1   
    18     5    38 1   
    19     6    21 1   
    20     6    39 1   
    21     6    40 1   
    22     7     8 ar  
    23     7     9 1   
    24     7    14 ar  
    25     8    13 1   
    26     8    15 ar  
    27     9    10 1   
    28     9    59 2   
    29    10    11 1   
    30    10    58 1   
    31    11    12 1   
    32    11    13 2   
    33    12    41 1   
    34    12    42 1   
    35    14    17 ar  
    36    14    43 1   
    37    15    16 ar  
    38    15    44 1   
    39    16    17 ar  
    40    16    19 1   
    41    17    18 1   
    42    18    20 1   
    43    18    45 1   
    44    19    20 2   
    45    20    21 1   
    46    21    46 1   
    47    23    24 1   
    48    23    29 1   
    49    23    47 1   
    50    24    25 1   
    51    24    48 1   
    52    25    26 1   
    53    26    27 1   
    54    26    28 1   
    55    26    29 1   
    56    27    49 1   
    57    27    50 1   
    58    27    51 1   
    59    28    52 1   
    60    28    53 1   
    61    28    54 1   
    62    32    55 1   
    63    32    56 1   
    64    32    57 1   
@<TRIPOS>SUBSTRUCTURE
     1 6MM         1 TEMP              0 ****  ****    0 ROOT
