@<TRIPOS>MOLECULE
6MQ
   51    55     1     0     0
SMALL
No Charge or Current Charge


@<TRIPOS>ATOM
      1 C           -1.6440     2.1880     0.0640 c3         1 6MQ       0.146900
      2 C1          -3.7590     0.9760     0.3400 c5         1 6MQ       0.362300
      3 C2          -3.2830    -1.1870     1.1430 c5         1 6MQ       0.146300
      4 C3          -1.8920    -1.5560     0.5450 c3         1 6MQ       0.205800
      5 C4           0.4540    -0.7770     0.9680 cc         1 6MQ       0.665700
      6 O           -2.6070     1.2710    -0.4830 os         1 6MQ      -0.490000
      7 C5           2.2450    -0.6310    -0.2800 ca         1 6MQ      -0.034200
      8 C6           3.2340    -0.7160    -1.2650 ca         1 6MQ      -0.137000
      9 C7           4.4450    -0.0210    -1.0580 ca         1 6MQ       0.227400
     10 C8           6.5150     0.5560    -1.7750 cc         1 6MQ       0.710800
     11 C9           5.8910     1.4560     0.3300 c          1 6MQ       0.592600
     12 O1          -3.3410     0.2200     1.4990 os         1 6MQ      -0.441000
     13 O2           6.1460     2.1410     1.3080 o          1 6MQ      -0.543000
     14 C10          4.6140     0.7320     0.1330 ca         1 6MQ      -0.238600
     15 N           -0.7790    -1.1030     1.4000 nu         1 6MQ      -0.888400
     16 C11          3.5870     0.7930     1.1090 ca         1 6MQ       0.013000
     17 C12          2.3980     0.0910     0.8690 ca         1 6MQ       0.072400
     18 C13         -4.4650    -1.3790     0.1450 c5         1 6MQ       0.110300
     19 N2           5.4280    -0.1180    -2.0570 nd         1 6MQ      -0.709100
     20 N3           7.4840     0.5030    -2.6710 nv         1 6MQ      -1.036200
     21 N4           6.7680     1.2960    -0.6810 ns         1 6MQ      -0.454400
     22 N1           1.0070    -1.1900    -0.2240 na         1 6MQ      -0.360600
     23 N5           1.2640     0.0080     1.6770 nd         1 6MQ      -0.643100
     24 C17         -4.6910     0.0270    -0.4840 c5         1 6MQ       0.117300
     25 O4          -6.0760     0.3450    -0.1700 os         1 6MQ      -0.457000
     26 C14         -6.7140    -0.8990     0.1660 c5         1 6MQ       0.398000
     27 C15         -7.1550    -1.6600    -1.1120 c3         1 6MQ      -0.109600
     28 C16         -7.9050    -0.6370     1.1030 c3         1 6MQ      -0.109600
     29 O3          -5.6910    -1.6180     0.8760 os         1 6MQ      -0.457000
     30 H1          -0.8100     2.3280    -0.6360 h1         1 6MQ       0.041367
     31 H2          -2.1020     3.1680     0.2520 h1         1 6MQ       0.041367
     32 H3          -1.2330     1.8110     1.0090 h1         1 6MQ       0.041367
     33 H4          -4.2730     1.9020     0.6300 h2         1 6MQ       0.094700
     34 H5          -3.4290    -1.7890     2.0500 h1         1 6MQ       0.097700
     35 H6          -1.8440    -2.6470     0.4260 h1         1 6MQ       0.046200
     36 H7          -1.8000    -1.1180    -0.4580 h1         1 6MQ       0.046200
     37 H8           3.0760    -1.3010    -2.1670 ha         1 6MQ       0.132000
     38 H9          -1.0330    -0.5390     2.2070 hn         1 6MQ       0.511000
     39 H10          3.7060     1.3680     2.0240 ha         1 6MQ       0.148000
     40 H11         -4.2980    -2.1730    -0.5960 h1         1 6MQ       0.071700
     41 H12          8.4310     0.5790    -2.3230 hn         1 6MQ       0.488000
     42 H13          7.3410    -0.1970    -3.3880 hn         1 6MQ       0.488000
     43 H14          7.6420     1.7870    -0.6050 hn         1 6MQ       0.323500
     44 H15          0.5680    -1.7960    -0.8990 hn         1 6MQ       0.358000
     45 H17         -4.5150     0.0630    -1.5670 h1         1 6MQ       0.087700
     46 H18         -6.3420    -1.7840    -1.8360 hc         1 6MQ       0.053700
     47 H19         -7.5290    -2.6590    -0.8590 hc         1 6MQ       0.053700
     48 H20         -7.9650    -1.1240    -1.6210 hc         1 6MQ       0.053700
     49 H21         -8.6680    -0.0250     0.6080 hc         1 6MQ       0.053700
     50 H22         -8.3760    -1.5770     1.4130 hc         1 6MQ       0.053700
     51 H23         -7.5830    -0.1070     2.0070 hc         1 6MQ       0.053700
@<TRIPOS>BOND
     1     1     6 1   
     2     1    30 1   
     3     1    31 1   
     4     1    32 1   
     5     2     6 1   
     6     2    12 1   
     7     2    24 1   
     8     2    33 1   
     9     3     4 1   
    10     3    12 1   
    11     3    18 1   
    12     3    34 1   
    13     4    15 1   
    14     4    35 1   
    15     4    36 1   
    16     5    15 1   
    17     5    22 1   
    18     5    23 2   
    19     7     8 ar  
    20     7    17 ar  
    21     7    22 1   
    22     8     9 ar  
    23     8    37 1   
    24     9    14 ar  
    25     9    19 1   
    26    10    19 2   
    27    10    20 1   
    28    10    21 1   
    29    11    13 2   
    30    11    14 1   
    31    11    21 1   
    32    14    16 ar  
    33    15    38 1   
    34    16    17 ar  
    35    16    39 1   
    36    17    23 1   
    37    18    24 1   
    38    18    29 1   
    39    18    40 1   
    40    20    41 1   
    41    20    42 1   
    42    21    43 1   
    43    22    44 1   
    44    24    25 1   
    45    24    45 1   
    46    25    26 1   
    47    26    27 1   
    48    26    28 1   
    49    26    29 1   
    50    27    46 1   
    51    27    47 1   
    52    27    48 1   
    53    28    49 1   
    54    28    50 1   
    55    28    51 1   
@<TRIPOS>SUBSTRUCTURE
     1 6MQ         1 TEMP              0 ****  ****    0 ROOT
