@<TRIPOS>MOLECULE
6MQ
   51    55     1     0     0
SMALL
bcc


@<TRIPOS>ATOM
      1 C           -1.8010     2.1520    -0.5760 c3         1 6MQ       0.123700
      2 C1          -3.7690     0.9470    -0.1050 c5         1 6MQ       0.315900
      3 C2          -3.2790    -0.8850     1.1910 c5         1 6MQ       0.123100
      4 C3          -1.8940    -1.3660     0.7650 c3         1 6MQ       0.205800
      5 C4           0.3980    -0.5270     1.1550 cc         1 6MQ       0.665700
      6 O           -2.6720     1.1040    -0.9480 os         1 6MQ      -0.443600
      7 C5           2.1030    -0.2560    -0.2200 ca         1 6MQ      -0.034200
      8 C6           2.9760    -0.1510    -1.2760 ca         1 6MQ      -0.155000
      9 C7           4.3030     0.2000    -0.9850 ca         1 6MQ       0.227400
     10 C8           6.4060     0.6310    -1.7630 cc         1 6MQ       0.710800
     11 C9           6.0630     0.7830     0.6340 c          1 6MQ       0.735100
     12 O1          -3.4080     0.5260     1.1810 os         1 6MQ      -0.394600
     13 O2           6.5350     1.0040     1.7390 o          1 6MQ      -0.618500
     14 C10          4.6830     0.4270     0.3590 ca         1 6MQ      -0.238600
     15 N           -0.8660    -0.7430     1.5610 nu         1 6MQ      -0.833200
     16 C11          3.7720     0.3140     1.4180 ca         1 6MQ      -0.005000
     17 C12          2.4710    -0.0300     1.1290 ca         1 6MQ       0.072400
     18 C13         -4.3480    -1.3890     0.2250 c5         1 6MQ       0.087100
     19 N2           5.1850     0.3040    -2.0300 nd         1 6MQ      -0.709100
     20 N3           7.3090     0.8070    -2.7520 nv         1 6MQ      -0.925800
     21 N4           6.8540     0.8650    -0.4900 ns         1 6MQ      -0.521400
     22 N1           0.7710    -0.5730    -0.1630 na         1 6MQ      -0.310300
     23 N5           1.3850    -0.2110     1.9560 nd         1 6MQ      -0.643100
     24 C17         -4.6470    -0.1710    -0.6730 c5         1 6MQ       0.094100
     25 O4          -6.0030     0.1120    -0.4350 os         1 6MQ      -0.410600
     26 C14         -6.6010    -1.0230     0.1580 c5         1 6MQ       0.351600
     27 C15         -7.1270    -1.9750    -0.9100 c3         1 6MQ      -0.109600
     28 C16         -7.6890    -0.5710     1.1080 c3         1 6MQ      -0.109600
     29 O3          -5.5610    -1.6240     0.8990 os         1 6MQ      -0.410600
     30 H1          -1.0370     2.2300    -1.3470 h1         1 6MQ       0.041367
     31 H2          -2.3320     3.1080    -0.5100 h1         1 6MQ       0.041367
     32 H3          -1.3120     1.9630     0.3820 h1         1 6MQ       0.041367
     33 H4          -4.3100     1.8960     0.0050 h2         1 6MQ       0.094700
     34 H5          -3.4770    -1.2240     2.2110 h1         1 6MQ       0.097700
     35 H6          -1.8710    -2.4580     0.8600 h1         1 6MQ       0.046200
     36 H7          -1.7390    -1.1370    -0.2880 h1         1 6MQ       0.046200
     37 H8           2.6740    -0.3270    -2.3000 ha         1 6MQ       0.150000
     38 H9          -0.9670    -0.8090     2.5630 hn         1 6MQ       0.455800
     39 H10          4.0910     0.4950     2.4360 ha         1 6MQ       0.166000
     40 H11         -4.0220    -2.2740    -0.3330 h1         1 6MQ       0.071700
     41 H12          8.2920     0.7440    -2.5460 hn         1 6MQ       0.432800
     42 H13          7.0430     0.4640    -3.6600 hn         1 6MQ       0.432800
     43 H14          7.8220     1.1230    -0.3450 hn         1 6MQ       0.323500
     44 H15          0.1930    -0.8100    -0.9520 hn         1 6MQ       0.307700
     45 H17         -4.4480    -0.3470    -1.7340 h1         1 6MQ       0.087700
     46 H18         -6.3370    -2.3000    -1.5900 hc         1 6MQ       0.053700
     47 H19         -7.5600    -2.8620    -0.4480 hc         1 6MQ       0.053700
     48 H20         -7.9030    -1.4920    -1.5040 hc         1 6MQ       0.053700
     49 H21         -8.4700    -0.0410     0.5640 hc         1 6MQ       0.053700
     50 H22         -8.1480    -1.4300     1.5950 hc         1 6MQ       0.053700
     51 H23         -7.2860     0.0910     1.8750 hc         1 6MQ       0.053700
@<TRIPOS>BOND
     1     1     6 1   
     2     1    30 1   
     3     1    31 1   
     4     1    32 1   
     5     2     6 1   
     6     2    12 1   
     7     2    24 1   
     8     2    33 1   
     9     3     4 1   
    10     3    12 1   
    11     3    18 1   
    12     3    34 1   
    13     4    15 1   
    14     4    35 1   
    15     4    36 1   
    16     5    15 1   
    17     5    22 1   
    18     5    23 2   
    19     7     8 ar  
    20     7    17 ar  
    21     7    22 1   
    22     8     9 ar  
    23     8    37 1   
    24     9    14 ar  
    25     9    19 1   
    26    10    19 2   
    27    10    20 1   
    28    10    21 1   
    29    11    13 2   
    30    11    14 1   
    31    11    21 1   
    32    14    16 ar  
    33    15    38 1   
    34    16    17 ar  
    35    16    39 1   
    36    17    23 1   
    37    18    24 1   
    38    18    29 1   
    39    18    40 1   
    40    20    41 1   
    41    20    42 1   
    42    21    43 1   
    43    22    44 1   
    44    24    25 1   
    45    24    45 1   
    46    25    26 1   
    47    26    27 1   
    48    26    28 1   
    49    26    29 1   
    50    27    46 1   
    51    27    47 1   
    52    27    48 1   
    53    28    49 1   
    54    28    50 1   
    55    28    51 1   
@<TRIPOS>SUBSTRUCTURE
     1 6MQ         1 TEMP              0 ****  ****    0 ROOT
