@<TRIPOS>MOLECULE
6MR
   49    52     1     0     0
SMALL
No Charge or Current Charge


@<TRIPOS>ATOM
      1 CD2         -4.5910     2.6300     8.7620 ca         1 6MR      -0.096800
      2 CE3         -5.7780     3.0350     8.1340 ca         1 6MR      -0.044000
      3 CZ3         -6.3730     4.2380     8.5750 ca         1 6MR      -0.162000
      4 CH2         -5.7790     4.9950     9.6150 ca         1 6MR      -0.096000
      5 CZ2         -4.5860     4.5520    10.2270 ca         1 6MR      -0.140000
      6 CE2         -4.0190     3.3580     9.7670 ca         1 6MR      -0.046200
      7 NE1         -2.8680     2.7200    10.1920 na         1 6MR      -0.231700
      8 CD1         -2.6690     1.5370     9.4480 cc         1 6MR      -0.194100
      9 CG          -3.7360     1.4820     8.5580 cd         1 6MR      -0.117400
     10 CB          -3.9330     0.4180     7.5000 c3         1 6MR      -0.025200
     11 CA          -3.6230     0.9460     6.0800 c3         1 6MR       0.086500
     12 C           -3.8830    -0.1630     4.9860 c          1 6MR       0.731000
     13 OXT         -4.9000    -0.0780     4.3080 o          1 6MR      -0.705000
     14 O           -3.0710    -1.0730     4.8530 o          1 6MR      -0.705000
     15 N           -2.2460     1.5440     6.0980 n7         1 6MR      -0.821300
     16 SAZ         -1.8670     2.7150     4.9690 sy         1 6MR       1.144600
     17 OBE         -2.8100     2.5660     3.8570 o          1 6MR      -0.546500
     18 OAP         -0.4160     2.6310     4.7820 o          1 6MR      -0.546500
     19 CAY         -2.3000     4.1620     5.9400 ca         1 6MR      -0.282500
     20 CAX         -1.3660     4.7200     6.8340 ca         1 6MR      -0.014500
     21 CAW         -1.7310     5.8090     7.6430 ca         1 6MR      -0.119000
     22 CAO         -3.5960     4.7060     5.8590 ca         1 6MR      -0.014500
     23 CAN         -3.9520     5.7970     6.6680 ca         1 6MR      -0.119000
     24 CAM         -3.0330     6.3680     7.5820 cp         1 6MR      -0.012000
     25 CAL         -3.4320     7.5080     8.4690 cp         1 6MR       0.004000
     26 CAK         -2.9100     7.6310     9.7830 ca         1 6MR      -0.104000
     27 CAJ         -3.2970     8.6910    10.6230 ca         1 6MR      -0.084500
     28 CAT         -4.2120     9.6500    10.1650 ca         1 6MR       0.193000
     29 I           -4.8090    11.2810    11.4580 i          1 6MR      -0.336000
     30 CAU         -4.7410     9.5530     8.8690 ca         1 6MR      -0.084500
     31 CAV         -4.3560     8.4920     8.0300 ca         1 6MR      -0.104000
     32 HE3         -6.2250     2.4470     7.3370 ha         1 6MR       0.135000
     33 HZ3         -7.2920     4.5870     8.1100 ha         1 6MR       0.104000
     34 HH2         -6.2430     5.9220     9.9440 ha         1 6MR       0.100000
     35 HZ2         -4.1220     5.1240    11.0270 ha         1 6MR       0.102000
     36 HNE1        -2.2610     3.0580    10.9320 hn         1 6MR       0.337000
     37 HD1         -1.8230     0.8720     9.5960 h4         1 6MR       0.208000
     38 HB1         -4.9660     0.0510     7.5270 hc         1 6MR       0.066200
     39 HB2         -3.2930    -0.4480     7.7110 hc         1 6MR       0.066200
     40 HA          -4.3530     1.7440     5.8880 h1         1 6MR       0.040700
     41 HN          -2.2070     2.1120     6.9430 hn         1 6MR       0.463000
     42 HAX         -0.3600     4.3090     6.9150 ha         1 6MR       0.136500
     43 HAW         -0.9920     6.2250     8.3220 ha         1 6MR       0.107000
     44 HAO         -4.3370     4.2780     5.1860 ha         1 6MR       0.136500
     45 HAN         -4.9660     6.1820     6.6050 ha         1 6MR       0.107000
     46 HAK         -2.2140     6.8890    10.1630 ha         1 6MR       0.119500
     47 HAJ         -2.8920     8.7670    11.6280 ha         1 6MR       0.122000
     48 HAU         -5.4480    10.2990     8.5160 ha         1 6MR       0.122000
     49 HAV         -4.7690     8.4410     7.0260 ha         1 6MR       0.119500
@<TRIPOS>BOND
     1     1     2 ar  
     2     1     6 ar  
     3     1     9 1   
     4     2     3 ar  
     5     2    32 1   
     6     3     4 ar  
     7     3    33 1   
     8     4     5 ar  
     9     4    34 1   
    10     5     6 ar  
    11     5    35 1   
    12     6     7 1   
    13     7     8 1   
    14     7    36 1   
    15     8     9 2   
    16     8    37 1   
    17     9    10 1   
    18    10    11 1   
    19    10    38 1   
    20    10    39 1   
    21    11    12 1   
    22    11    15 1   
    23    11    40 1   
    24    12    13 1   
    25    12    14 1   
    26    15    16 1   
    27    15    41 1   
    28    16    17 2   
    29    16    18 2   
    30    16    19 1   
    31    19    20 ar  
    32    19    22 ar  
    33    20    21 ar  
    34    20    42 1   
    35    21    24 ar  
    36    21    43 1   
    37    22    23 ar  
    38    22    44 1   
    39    23    24 ar  
    40    23    45 1   
    41    24    25 1   
    42    25    26 ar  
    43    25    31 ar  
    44    26    27 ar  
    45    26    46 1   
    46    27    28 ar  
    47    27    47 1   
    48    28    29 1   
    49    28    30 ar  
    50    30    31 ar  
    51    30    48 1   
    52    31    49 1   
@<TRIPOS>SUBSTRUCTURE
     1 6MR         1 TEMP              0 ****  ****    0 ROOT
