@<TRIPOS>MOLECULE
6MR
   49    52     1     0     0
SMALL
abcg2


@<TRIPOS>ATOM
      1 CD2         -4.6200     2.6930     8.6620 ca         1 6MR      -0.096800
      2 CE3         -5.8540     3.0530     8.1090 ca         1 6MR      -0.044000
      3 CZ3         -6.4810     4.1980     8.5610 ca         1 6MR      -0.162000
      4 CH2         -5.9020     4.9920     9.5640 ca         1 6MR      -0.096000
      5 CZ2         -4.6900     4.6570    10.1330 ca         1 6MR      -0.140000
      6 CE2         -4.0550     3.5090     9.6660 ca         1 6MR      -0.046200
      7 NE1         -2.8750     2.9360    10.0410 na         1 6MR      -0.231700
      8 CD1         -2.6780     1.7950     9.3160 cc         1 6MR      -0.194100
      9 CG          -3.7230     1.5950     8.4560 cd         1 6MR      -0.117400
     10 CB          -3.8820     0.4920     7.4660 c3         1 6MR      -0.025200
     11 CA          -3.6110     0.9440     6.0230 c3         1 6MR       0.086500
     12 C           -3.9450    -0.1870     5.0200 c          1 6MR       0.731000
     13 OXT         -5.1570    -0.4820     4.9770 o          1 6MR      -0.705000
     14 O           -3.0180    -0.7010     4.3780 o          1 6MR      -0.705000
     15 N           -2.2320     1.4030     5.9190 n7         1 6MR      -0.821300
     16 SAZ         -1.8690     2.7490     5.0780 sy         1 6MR       1.144600
     17 OBE         -2.7160     2.7570     3.8940 o          1 6MR      -0.546500
     18 OAP         -0.4210     2.7810     4.9340 o          1 6MR      -0.546500
     19 CAY         -2.3280     4.1390     6.0790 ca         1 6MR      -0.282500
     20 CAX         -1.4110     4.6560     6.9850 ca         1 6MR      -0.014500
     21 CAW         -1.7760     5.7260     7.7810 ca         1 6MR      -0.119000
     22 CAO         -3.6000     4.6820     5.9740 ca         1 6MR      -0.014500
     23 CAN         -3.9540     5.7480     6.7820 ca         1 6MR      -0.119000
     24 CAM         -3.0490     6.2920     7.6920 cp         1 6MR      -0.012000
     25 CAL         -3.4250     7.4420     8.5350 cp         1 6MR       0.004000
     26 CAK         -2.8890     7.6010     9.8130 ca         1 6MR      -0.104000
     27 CAJ         -3.2400     8.6770    10.6130 ca         1 6MR      -0.084500
     28 CAT         -4.1430     9.6130    10.1320 ca         1 6MR       0.193000
     29 I           -4.6890    11.2470    11.3380 i          1 6MR      -0.336000
     30 CAU         -4.6890     9.4840     8.8640 ca         1 6MR      -0.084500
     31 CAV         -4.3250     8.4020     8.0770 ca         1 6MR      -0.104000
     32 HE3         -6.3130     2.4430     7.3400 ha         1 6MR       0.135000
     33 HZ3         -7.4340     4.4890     8.1380 ha         1 6MR       0.104000
     34 HH2         -6.4140     5.8870     9.8960 ha         1 6MR       0.100000
     35 HZ2         -4.2500     5.2660    10.9120 ha         1 6MR       0.102000
     36 HNE1        -2.2440     3.2940    10.7360 hn         1 6MR       0.337000
     37 HD1         -1.7990     1.1880     9.4720 h4         1 6MR       0.208000
     38 HB1         -4.8980     0.0960     7.4950 hc         1 6MR       0.066200
     39 HB2         -3.2160    -0.3390     7.7180 hc         1 6MR       0.066200
     40 HA          -4.2980     1.7710     5.8180 h1         1 6MR       0.040700
     41 HN          -1.6590     1.3030     6.7490 hn         1 6MR       0.463000
     42 HAX         -0.4130     4.2500     7.0650 ha         1 6MR       0.136500
     43 HAW         -1.0420     6.1410     8.4600 ha         1 6MR       0.107000
     44 HAO         -4.3200     4.2850     5.2710 ha         1 6MR       0.136500
     45 HAN         -4.9590     6.1400     6.7100 ha         1 6MR       0.107000
     46 HAK         -2.2020     6.8670    10.2130 ha         1 6MR       0.119500
     47 HAJ         -2.8130     8.7660    11.6030 ha         1 6MR       0.122000
     48 HAU         -5.3860    10.2140     8.4750 ha         1 6MR       0.122000
     49 HAV         -4.7430     8.3270     7.0810 ha         1 6MR       0.119500
@<TRIPOS>BOND
     1     1     2 ar  
     2     1     6 ar  
     3     1     9 1   
     4     2     3 ar  
     5     2    32 1   
     6     3     4 ar  
     7     3    33 1   
     8     4     5 ar  
     9     4    34 1   
    10     5     6 ar  
    11     5    35 1   
    12     6     7 1   
    13     7     8 1   
    14     7    36 1   
    15     8     9 2   
    16     8    37 1   
    17     9    10 1   
    18    10    11 1   
    19    10    38 1   
    20    10    39 1   
    21    11    12 1   
    22    11    15 1   
    23    11    40 1   
    24    12    13 1   
    25    12    14 1   
    26    15    16 1   
    27    15    41 1   
    28    16    17 2   
    29    16    18 2   
    30    16    19 1   
    31    19    20 ar  
    32    19    22 ar  
    33    20    21 ar  
    34    20    42 1   
    35    21    24 ar  
    36    21    43 1   
    37    22    23 ar  
    38    22    44 1   
    39    23    24 ar  
    40    23    45 1   
    41    24    25 1   
    42    25    26 ar  
    43    25    31 ar  
    44    26    27 ar  
    45    26    46 1   
    46    27    28 ar  
    47    27    47 1   
    48    28    29 1   
    49    28    30 ar  
    50    30    31 ar  
    51    30    48 1   
    52    31    49 1   
@<TRIPOS>SUBSTRUCTURE
     1 6MR         1 TEMP              0 ****  ****    0 ROOT
