@<TRIPOS>MOLECULE
6MU
   15    15     1     0     0
SMALL
abcg2


@<TRIPOS>ATOM
      1 O6          -3.8450   -14.3680   -14.9350 oh         1 6MU      -0.637300
      2 C6          -3.6900   -13.1900   -15.5530 ca         1 6MU       0.378300
      3 C5          -3.8520   -13.1200   -16.9340 ca         1 6MU      -0.281000
      4 N1          -3.3850   -12.1330   -14.8070 nb         1 6MU      -0.285000
      5 C2          -3.2440   -10.9890   -15.4680 ca         1 6MU       0.388300
      6 O2          -2.9350    -9.9300   -14.7040 oh         1 6MU      -0.619300
      7 N3          -3.3740   -10.7930   -16.7740 nb         1 6MU      -0.293000
      8 C4          -3.6820   -11.8730   -17.5160 ca         1 6MU       0.186300
      9 CI          -3.8350   -11.6760   -18.9930 c3         1 6MU      -0.153400
     10 H61         -3.7020   -14.2410   -13.9830 ho         1 6MU       0.493000
     11 H51         -4.1000   -13.9960   -17.5140 ha         1 6MU       0.149000
     12 H21         -2.8610    -9.1550   -15.2820 ho         1 6MU       0.492000
     13 HAI3        -3.6730   -10.6340   -19.2580 hc         1 6MU       0.060367
     14 HAI2        -3.1210   -12.2990   -19.5350 hc         1 6MU       0.060367
     15 HAI1        -4.8350   -11.9760   -19.3140 hc         1 6MU       0.060367
@<TRIPOS>BOND
     1     1     2 1   
     2     1    10 1   
     3     2     3 ar  
     4     2     4 ar  
     5     3     8 ar  
     6     3    11 1   
     7     4     5 ar  
     8     5     6 1   
     9     5     7 ar  
    10     6    12 1   
    11     7     8 ar  
    12     8     9 1   
    13     9    13 1   
    14     9    14 1   
    15     9    15 1   
@<TRIPOS>SUBSTRUCTURE
     1 6MU         1 TEMP              0 ****  ****    0 ROOT
