@<TRIPOS>MOLECULE
6MU
   15    15     1     0     0
SMALL
No Charge or Current Charge


@<TRIPOS>ATOM
      1 O6          -3.9740   -14.3810   -14.8860 oh         1 6MU      -0.637300
      2 C6          -3.7560   -13.2080   -15.5280 ca         1 6MU       0.378300
      3 C5          -3.9280   -13.1180   -16.9120 ca         1 6MU      -0.281000
      4 N1          -3.3750   -12.1580   -14.7880 nb         1 6MU      -0.285000
      5 C2          -3.1670   -11.0100   -15.4550 ca         1 6MU       0.388300
      6 O2          -2.7800    -9.9380   -14.7240 oh         1 6MU      -0.619300
      7 N3          -3.3010   -10.8110   -16.7780 nb         1 6MU      -0.293000
      8 C4          -3.6860   -11.8730   -17.5120 ca         1 6MU       0.186300
      9 CI          -3.8370   -11.6620   -19.0060 c3         1 6MU      -0.153400
     10 H61         -3.7950   -14.2110   -13.9360 ho         1 6MU       0.493000
     11 H51         -4.2350   -13.9810   -17.4950 ha         1 6MU       0.149000
     12 H21         -2.6750    -9.2000   -15.3610 ho         1 6MU       0.492000
     13 HAI3        -4.3120   -10.6990   -19.2260 hc         1 6MU       0.060367
     14 HAI2        -2.8590   -11.6760   -19.5010 hc         1 6MU       0.060367
     15 HAI1        -4.4530   -12.4470   -19.4600 hc         1 6MU       0.060367
@<TRIPOS>BOND
     1     1     2 1   
     2     1    10 1   
     3     2     3 ar  
     4     2     4 ar  
     5     3     8 ar  
     6     3    11 1   
     7     4     5 ar  
     8     5     6 1   
     9     5     7 ar  
    10     6    12 1   
    11     7     8 ar  
    12     8     9 1   
    13     9    13 1   
    14     9    14 1   
    15     9    15 1   
@<TRIPOS>SUBSTRUCTURE
     1 6MU         1 TEMP              0 ****  ****    0 ROOT
