@<TRIPOS>MOLECULE
6MV
   61    66     1     0     0
SMALL
No Charge or Current Charge


@<TRIPOS>ATOM
      1 C13         -0.6620    -1.1920     1.0130 ca         1 6MV      -0.042000
      2 C17         -1.1530    -5.0330     0.4770 c3         1 6MV       0.230300
      3 C19          0.2790    -5.4620     0.8800 c3         1 6MV      -0.099100
      4 C20         -2.1860    -5.7010     1.4130 c3         1 6MV      -0.099100
      5 C21         -0.3100     2.9650     2.3230 ca         1 6MV      -0.061000
      6 C22          0.9730     3.2570     2.8070 ca         1 6MV      -0.125000
      7 C23          2.1120     2.8180     2.1150 ca         1 6MV      -0.067000
      8 C24          1.9840     2.0470     0.9390 ca         1 6MV      -0.031400
      9 C11         -1.3710    -3.5020     0.4550 ca         1 6MV      -0.077300
     10 C12         -0.4400    -2.5870     1.0350 ca         1 6MV      -0.135000
     11 C34          6.7330     0.9130    -1.8570 ca         1 6MV      -0.102000
     12 C33          3.3600     0.3570    -0.2550 c          1 6MV       0.583600
     13 C1          -3.6010     0.5410    -0.3830 ca         1 6MV       0.047800
     14 C2          -2.3470     0.6650     0.2140 cp         1 6MV      -0.074000
     15 C3          -1.8430     1.9840     0.5890 cq         1 6MV       0.041000
     16 C4          -2.6890     3.0920     0.3830 ca         1 6MV      -0.153000
     17 C5          -3.9670     2.9200    -0.2110 ca         1 6MV      -0.053000
     18 C6          -4.4480     1.6410    -0.6170 ca         1 6MV      -0.186600
     19 N7          -3.7970    -0.8260    -0.6200 na         1 6MV      -0.210600
     20 C8          -2.7330    -1.5970    -0.1480 ca         1 6MV      -0.004200
     21 C9          -1.8230    -0.6970     0.3900 cp         1 6MV      -0.092000
     22 C10         -2.5510    -2.9820    -0.1370 ca         1 6MV      -0.130000
     23 C14         -5.8060     1.4530    -1.2560 c          1 6MV       0.633700
     24 O15         -6.2320     0.3640    -1.6060 o          1 6MV      -0.642100
     25 N16         -6.5770     2.5430    -1.4460 nt         1 6MV      -0.598000
     26 O18         -1.3740    -5.5410    -0.8400 oh         1 6MV      -0.658000
     27 C25          0.6810     1.8110     0.4250 ca         1 6MV       0.207000
     28 C26         -0.4670     2.2370     1.1290 cq         1 6MV      -0.075000
     29 N28          3.1650     1.6710     0.1840 n          1 6MV      -0.258500
     30 C29          4.2090     2.5880     0.0640 cc         1 6MV       0.515800
     31 N30          5.3700     2.4130    -0.5740 nd         1 6MV      -0.619100
     32 C31          5.5430     1.1470    -1.1430 ca         1 6MV       0.181400
     33 C32          4.6050     0.1100    -1.0250 ca         1 6MV      -0.197600
     34 C35          6.9870    -0.3350    -2.4490 ca         1 6MV      -0.074000
     35 C36          6.0470    -1.3690    -2.3260 ca         1 6MV      -0.132000
     36 C37          4.8580    -1.1500    -1.6130 ca         1 6MV      -0.041000
     37 H1           0.0530    -0.5240     1.4820 ha         1 6MV       0.130000
     38 H2           0.4020    -6.5480     0.7800 hc         1 6MV       0.044533
     39 H3           1.0300    -4.9790     0.2430 hc         1 6MV       0.044533
     40 H4           0.4890    -5.2030     1.9240 hc         1 6MV       0.044533
     41 H29         -3.2110    -5.4870     1.0910 hc         1 6MV       0.044533
     42 H5          -2.0570    -6.7900     1.4250 hc         1 6MV       0.044533
     43 H6          -2.0690    -5.3330     2.4390 hc         1 6MV       0.044533
     44 H7          -1.1790     3.3140     2.8760 ha         1 6MV       0.128000
     45 H31          1.0860     3.8300     3.7260 ha         1 6MV       0.127000
     46 H32          3.0930     3.0520     2.5220 ha         1 6MV       0.130000
     47 H8           0.4650    -2.9410     1.5200 ha         1 6MV       0.119000
     48 H9           7.4670     1.7090    -1.9520 ha         1 6MV       0.134000
     49 H10         -2.3610     4.0940     0.6470 ha         1 6MV       0.117000
     50 H11         -4.5750     3.8090    -0.3590 ha         1 6MV       0.104000
     51 H12         -4.6300    -1.1990    -1.0630 hn         1 6MV       0.387000
     52 H13         -3.3020    -3.6390    -0.5710 ha         1 6MV       0.128000
     53 H14         -6.2490     3.4530    -1.1660 hn         1 6MV       0.316500
     54 H15         -7.4850     2.4320    -1.8710 hn         1 6MV       0.316500
     55 H16         -0.8920    -4.9410    -1.4480 ho         1 6MV       0.443000
     56 H17          4.0010     3.5570     0.5010 h5         1 6MV       0.052800
     57 H18          7.9120    -0.5000    -2.9990 ha         1 6MV       0.118000
     58 H19          6.2400    -2.3380    -2.7800 ha         1 6MV       0.120000
     59 H20          4.1360    -1.9590    -1.5200 ha         1 6MV       0.135000
     60 F27          0.5320     1.2370    -0.7930 f          1 6MV      -0.152000
     61 O38          2.5770    -0.5500     0.0010 o          1 6MV      -0.522000
@<TRIPOS>BOND
     1     1    10 ar  
     2     1    21 ar  
     3     1    37 1   
     4     2     3 1   
     5     2     4 1   
     6     2     9 1   
     7     2    26 1   
     8     3    38 1   
     9     3    39 1   
    10     3    40 1   
    11     4    41 1   
    12     4    42 1   
    13     4    43 1   
    14     5     6 ar  
    15     5    28 2   
    16     5    44 1   
    17     6     7 ar  
    18     6    45 1   
    19     7     8 ar  
    20     7    46 1   
    21     8    27 ar  
    22     8    29 1   
    23     9    10 ar  
    24     9    22 ar  
    25    10    47 1   
    26    11    32 ar  
    27    11    34 ar  
    28    11    48 1   
    29    12    29 1   
    30    12    33 1   
    31    12    61 2   
    32    13    14 ar  
    33    13    18 ar  
    34    13    19 1   
    35    14    15 2   
    36    14    21 1   
    37    15    16 1   
    38    15    28 1   
    39    16    17 ar  
    40    16    49 1   
    41    17    18 ar  
    42    17    50 1   
    43    18    23 1   
    44    19    20 1   
    45    19    51 1   
    46    20    21 ar  
    47    20    22 ar  
    48    22    52 1   
    49    23    24 2   
    50    23    25 1   
    51    25    53 1   
    52    25    54 1   
    53    26    55 1   
    54    27    28 1   
    55    27    60 1   
    56    29    30 1   
    57    30    31 2   
    58    30    56 1   
    59    31    32 1   
    60    32    33 ar  
    61    33    36 ar  
    62    34    35 ar  
    63    34    57 1   
    64    35    36 ar  
    65    35    58 1   
    66    36    59 1   
@<TRIPOS>SUBSTRUCTURE
     1 6MV         1 TEMP              0 ****  ****    0 ROOT
