@<TRIPOS>MOLECULE
6MV
   61    66     1     0     0
SMALL
abcg2


@<TRIPOS>ATOM
      1 C13         -0.6300    -1.1960     0.8530 ca         1 6MV      -0.042000
      2 C17         -1.2540    -4.9240     0.2650 c3         1 6MV       0.230300
      3 C19          0.0410    -5.2580    -0.4800 c3         1 6MV      -0.099100
      4 C20         -1.1960    -5.4550     1.6950 c3         1 6MV      -0.099100
      5 C21         -0.3360     2.7920     2.3870 ca         1 6MV      -0.061000
      6 C22          0.9190     3.0140     2.9320 ca         1 6MV      -0.125000
      7 C23          2.0560     2.6350     2.2340 ca         1 6MV      -0.067000
      8 C24          1.9270     2.0480     0.9860 ca         1 6MV      -0.031400
      9 C11         -1.4760    -3.4140     0.2900 ca         1 6MV      -0.077300
     10 C12         -0.4800    -2.5670     0.8110 ca         1 6MV      -0.135000
     11 C34          6.4080     0.7790    -1.9790 ca         1 6MV      -0.102000
     12 C33          3.4600     0.3180     0.2890 c          1 6MV       0.583600
     13 C1          -3.6130     0.5960    -0.3360 ca         1 6MV       0.047800
     14 C2          -2.3180     0.7200     0.2280 cp         1 6MV      -0.074000
     15 C3          -1.8260     1.9860     0.5460 cq         1 6MV       0.041000
     16 C4          -2.6400     3.0880     0.3140 ca         1 6MV      -0.153000
     17 C5          -3.9050     2.9500    -0.2450 ca         1 6MV      -0.053000
     18 C6          -4.4260     1.7090    -0.5970 ca         1 6MV      -0.186600
     19 N7          -3.8670    -0.7240    -0.5510 na         1 6MV      -0.210600
     20 C8          -2.8000    -1.4780    -0.1410 ca         1 6MV      -0.004200
     21 C9          -1.8040    -0.6230     0.3610 cp         1 6MV      -0.092000
     22 C10         -2.6560    -2.8620    -0.1800 ca         1 6MV      -0.130000
     23 C14         -5.7690     1.5140    -1.2060 c          1 6MV       0.633700
     24 O15         -6.2380     0.3860    -1.3470 o          1 6MV      -0.642100
     25 N16         -6.4380     2.6080    -1.5930 nt         1 6MV      -0.598000
     26 O18         -2.3390    -5.5890    -0.3520 oh         1 6MV      -0.658000
     27 C25          0.6660     1.8470     0.4530 ca         1 6MV       0.207000
     28 C26         -0.4880     2.1930     1.1370 cq         1 6MV      -0.075000
     29 N28          3.0710     1.6530     0.2400 n          1 6MV      -0.258500
     30 C29          3.7470     2.5880    -0.4980 cc         1 6MV       0.515800
     31 N30          4.7870     2.3560    -1.2010 nd         1 6MV      -0.619100
     32 C31          5.2670     1.0650    -1.2200 ca         1 6MV       0.181400
     33 C32          4.6480     0.0300    -0.5020 ca         1 6MV      -0.197600
     34 C35          6.9120    -0.5030    -2.0130 ca         1 6MV      -0.074000
     35 C36          6.2920    -1.5330    -1.2950 ca         1 6MV      -0.132000
     36 C37          5.1680    -1.2670    -0.5450 ca         1 6MV      -0.041000
     37 H1           0.1640    -0.5990     1.2770 ha         1 6MV       0.130000
     38 H2           0.2010    -6.3370    -0.4890 hc         1 6MV       0.044533
     39 H3          -0.0040    -4.9090    -1.5150 hc         1 6MV       0.044533
     40 H4           0.9100    -4.7980    -0.0150 hc         1 6MV       0.044533
     41 H29         -2.1250    -5.2470     2.2290 hc         1 6MV       0.044533
     42 H5          -1.0310    -6.5340     1.6960 hc         1 6MV       0.044533
     43 H6          -0.3800    -4.9940     2.2500 hc         1 6MV       0.044533
     44 H7          -1.2220     3.0770     2.9390 ha         1 6MV       0.128000
     45 H31          1.0120     3.4760     3.9050 ha         1 6MV       0.127000
     46 H32          3.0420     2.7890     2.6520 ha         1 6MV       0.130000
     47 H8           0.4390    -2.9910     1.1960 ha         1 6MV       0.119000
     48 H9           6.8810     1.5790    -2.5330 ha         1 6MV       0.134000
     49 H10         -2.2780     4.0780     0.5580 ha         1 6MV       0.117000
     50 H11         -4.4800     3.8540    -0.3940 ha         1 6MV       0.104000
     51 H12         -4.7410    -1.0670    -0.9150 hn         1 6MV       0.387000
     52 H13         -3.4560    -3.4770    -0.5680 ha         1 6MV       0.128000
     53 H14         -6.0650     3.5380    -1.5410 hn         1 6MV       0.316500
     54 H15         -7.3480     2.5070    -2.0120 hn         1 6MV       0.316500
     55 H16         -2.3140    -5.4040    -1.2980 ho         1 6MV       0.443000
     56 H17          3.3360     3.5890    -0.4540 h5         1 6MV       0.052800
     57 H18          7.7950    -0.7160    -2.5990 ha         1 6MV       0.118000
     58 H19          6.6960    -2.5350    -1.3310 ha         1 6MV       0.120000
     59 H20          4.6830    -2.0560     0.0140 ha         1 6MV       0.135000
     60 F27          0.5730     1.3020    -0.7620 f          1 6MV      -0.152000
     61 O38          2.8400    -0.4890     0.9520 o          1 6MV      -0.522000
@<TRIPOS>BOND
     1     1    10 ar  
     2     1    21 ar  
     3     1    37 1   
     4     2     3 1   
     5     2     4 1   
     6     2     9 1   
     7     2    26 1   
     8     3    38 1   
     9     3    39 1   
    10     3    40 1   
    11     4    41 1   
    12     4    42 1   
    13     4    43 1   
    14     5     6 ar  
    15     5    28 2   
    16     5    44 1   
    17     6     7 ar  
    18     6    45 1   
    19     7     8 ar  
    20     7    46 1   
    21     8    27 ar  
    22     8    29 1   
    23     9    10 ar  
    24     9    22 ar  
    25    10    47 1   
    26    11    32 ar  
    27    11    34 ar  
    28    11    48 1   
    29    12    29 1   
    30    12    33 1   
    31    12    61 2   
    32    13    14 ar  
    33    13    18 ar  
    34    13    19 1   
    35    14    15 2   
    36    14    21 1   
    37    15    16 1   
    38    15    28 1   
    39    16    17 ar  
    40    16    49 1   
    41    17    18 ar  
    42    17    50 1   
    43    18    23 1   
    44    19    20 1   
    45    19    51 1   
    46    20    21 ar  
    47    20    22 ar  
    48    22    52 1   
    49    23    24 2   
    50    23    25 1   
    51    25    53 1   
    52    25    54 1   
    53    26    55 1   
    54    27    28 1   
    55    27    60 1   
    56    29    30 1   
    57    30    31 2   
    58    30    56 1   
    59    31    32 1   
    60    32    33 ar  
    61    33    36 ar  
    62    34    35 ar  
    63    34    57 1   
    64    35    36 ar  
    65    35    58 1   
    66    36    59 1   
@<TRIPOS>SUBSTRUCTURE
     1 6MV         1 TEMP              0 ****  ****    0 ROOT
