@<TRIPOS>MOLECULE
6MW
   23    24     1     0     0
SMALL
No Charge or Current Charge


@<TRIPOS>ATOM
      1 C10          2.7120     0.4990    -1.0800 ca         1 6MW      -0.139000
      2 C11          4.0040    -0.0020    -0.8480 ca         1 6MW       0.314400
      3 C13          3.2870    -1.2100     0.9910 ca         1 6MW       0.314400
      4 C14          1.9680    -0.7560     0.8300 ca         1 6MW      -0.139000
      5 C02         -3.3780    -0.6130    -0.8930 c          1 6MW       0.738000
      6 O03         -3.3620    -1.4710    -1.7690 o          1 6MW      -0.716500
      7 C04         -2.0850     0.2880    -0.6920 c5         1 6MW       0.022500
      8 C05         -2.1750     1.0800     0.6400 c5         1 6MW       0.134600
      9 S06         -0.4200     1.6050     1.0020 ss         1 6MW      -0.565000
     10 C07          0.2380     0.6460    -0.4430 c5         1 6MW       0.385800
     11 N08         -0.7600    -0.4240    -0.5910 n7         1 6MW      -0.851400
     12 C09          1.6570     0.1220    -0.2270 ca         1 6MW      -0.018300
     13 N12          4.2980    -0.8450     0.1690 nb         1 6MW      -0.686000
     14 H1           2.5400     1.1740    -1.9140 ha         1 6MW       0.134500
     15 H2           4.8320     0.2800    -1.4970 h4         1 6MW       0.005100
     16 H3           3.5440    -1.8890     1.8030 h4         1 6MW       0.005100
     17 H4           1.1960    -1.0830     1.5210 ha         1 6MW       0.134500
     18 H6          -2.0570     0.9890    -1.5390 h1         1 6MW       0.016700
     19 H7          -2.8450     1.9470     0.5630 h1         1 6MW       0.072200
     20 H8          -2.5270     0.4430     1.4630 h1         1 6MW       0.072200
     21 H9           0.2220     1.3010    -1.3250 h2         1 6MW       0.034700
     22 H10         -0.5710    -0.9390    -1.4600 hn         1 6MW       0.446000
     23 O01         -4.3580    -0.4570    -0.1740 o          1 6MW      -0.716500
@<TRIPOS>BOND
     1     1     2 ar  
     2     1    12 ar  
     3     1    14 1   
     4     2    13 ar  
     5     2    15 1   
     6     3     4 ar  
     7     3    13 ar  
     8     3    16 1   
     9     4    12 ar  
    10     4    17 1   
    11     5     6 1   
    12     5     7 1   
    13     5    23 1   
    14     7     8 1   
    15     7    11 1   
    16     7    18 1   
    17     8     9 1   
    18     8    19 1   
    19     8    20 1   
    20     9    10 1   
    21    10    11 1   
    22    10    12 1   
    23    10    21 1   
    24    11    22 1   
@<TRIPOS>SUBSTRUCTURE
     1 6MW         1 TEMP              0 ****  ****    0 ROOT
