@<TRIPOS>MOLECULE
6MW
   23    24     1     0     0
SMALL
abcg2


@<TRIPOS>ATOM
      1 C10          2.7460     0.6090    -0.9820 ca         1 6MW      -0.139000
      2 C11          3.9800     0.0920    -0.6100 ca         1 6MW       0.314400
      3 C13          3.0320    -1.2980     0.9120 ca         1 6MW       0.314400
      4 C14          1.7580    -0.8470     0.6170 ca         1 6MW      -0.139000
      5 C02         -3.2240    -0.7450    -0.6440 c          1 6MW       0.738000
      6 O03         -3.0100    -1.8150    -1.2420 o          1 6MW      -0.716500
      7 C04         -2.0750     0.2810    -0.6340 c5         1 6MW       0.022500
      8 C05         -2.0010     1.1170     0.6350 c5         1 6MW       0.134600
      9 S06         -0.3300     1.8510     0.5930 ss         1 6MW      -0.565000
     10 C07          0.2470     0.6730    -0.7130 c5         1 6MW       0.385800
     11 N08         -0.7690    -0.3450    -0.7250 n7         1 6MW      -0.851400
     12 C09          1.6010     0.1340    -0.3570 ca         1 6MW      -0.018300
     13 N12          4.1330    -0.8440     0.3170 nb         1 6MW      -0.686000
     14 H1           2.6870     1.3670    -1.7520 ha         1 6MW       0.134500
     15 H2           4.8830     0.4530    -1.0910 h4         1 6MW       0.005100
     16 H3           3.1720    -2.0650     1.6650 h4         1 6MW       0.005100
     17 H4           0.8980    -1.2540     1.1310 ha         1 6MW       0.134500
     18 H6          -2.2520     0.9760    -1.4760 h1         1 6MW       0.016700
     19 H7          -2.7460     1.9090     0.6530 h1         1 6MW       0.072200
     20 H8          -2.1110     0.5030     1.5290 h1         1 6MW       0.072200
     21 H9           0.3150     1.2400    -1.6510 h2         1 6MW       0.034700
     22 H10         -0.6940    -0.9220    -1.5540 hn         1 6MW       0.446000
     23 O01         -4.2790    -0.3860    -0.0890 o          1 6MW      -0.716500
@<TRIPOS>BOND
     1     1     2 ar  
     2     1    12 ar  
     3     1    14 1   
     4     2    13 ar  
     5     2    15 1   
     6     3     4 ar  
     7     3    13 ar  
     8     3    16 1   
     9     4    12 ar  
    10     4    17 1   
    11     5     6 1   
    12     5     7 1   
    13     5    23 1   
    14     7     8 1   
    15     7    11 1   
    16     7    18 1   
    17     8     9 1   
    18     8    19 1   
    19     8    20 1   
    20     9    10 1   
    21    10    11 1   
    22    10    12 1   
    23    10    21 1   
    24    11    22 1   
@<TRIPOS>SUBSTRUCTURE
     1 6MW         1 TEMP              0 ****  ****    0 ROOT
