@<TRIPOS>MOLECULE
6MX
   74    79     1     0     0
SMALL
No Charge or Current Charge


@<TRIPOS>ATOM
      1 O2          -2.1040    -1.6380     0.8950 o          1 6MX      -0.608100
      2 C17         -1.9620    -0.4460     0.6740 c          1 6MX       0.631700
      3 N2          -3.0390     0.4060     0.6350 ns         1 6MX      -0.508900
      4 C18         -4.4490     0.0140     0.7620 c6         1 6MX       0.122700
      5 C23         -5.3330     1.2260     1.1980 c6         1 6MX      -0.074200
      6 C22         -5.3390     2.3320     0.0970 c6         1 6MX      -0.070900
      7 C24         -6.7940     0.7330     1.4270 c6         1 6MX      -0.077900
      8 C25         -7.3700     0.1420     0.1050 c6         1 6MX       0.177000
      9 O3          -8.7060    -0.3130     0.3210 oh         1 6MX      -0.658000
     10 C26         -7.3580     1.2460    -0.9950 c6         1 6MX      -0.097400
     11 C21         -5.9020     1.7470    -1.2300 c6         1 6MX      -0.056700
     12 C20         -5.0140     0.5530    -1.6850 c6         1 6MX      -0.070900
     13 C27         -6.4720    -1.0460    -0.3560 c6         1 6MX      -0.077900
     14 C19         -5.0120    -0.5500    -0.5820 c6         1 6MX      -0.074200
     15 C9          -0.6300     0.2200     0.5340 ca         1 6MX      -0.302600
     16 C8          -0.4350     1.5210     1.0360 ca         1 6MX       0.000000
     17 C7           0.8300     2.0990     0.9090 ca         1 6MX      -0.272000
     18 C10          0.4620    -0.4290    -0.0780 ca         1 6MX       0.584300
     19 S            0.3200    -2.0300    -0.8770 ss         1 6MX      -0.333300
     20 C11          1.9530    -2.8300    -0.5200 c6         1 6MX       0.052300
     21 C16          2.1090    -4.1590    -1.3030 c6         1 6MX      -0.062900
     22 C15          3.4830    -4.8200    -1.0300 c6         1 6MX      -0.074900
     23 C14          3.7020    -5.0500     0.4860 c6         1 6MX      -0.073400
     24 C13          3.5420    -3.7300     1.2780 c6         1 6MX      -0.074900
     25 C12          2.1680    -3.0710     1.0000 c6         1 6MX      -0.062900
     26 N1           1.6690     0.1490    -0.2090 nb         1 6MX      -0.802000
     27 C6           1.8530     1.3760     0.2840 ca         1 6MX       0.675900
     28 N            3.1520     1.8860     0.1290 nh         1 6MX      -0.762300
     29 C4           3.5350     3.2810     0.4450 c5         1 6MX       0.214800
     30 C3           4.9190     3.3900    -0.2440 c5         1 6MX      -0.080400
     31 C5           4.3030     1.0860    -0.3680 c5         1 6MX       0.212800
     32 C2           5.5110     1.9800     0.0290 c5         1 6MX      -0.050700
     33 C1           6.8290     1.6490    -0.7250 c3         1 6MX      -0.202400
     34 C            7.9870     2.5370    -0.2340 c          1 6MX       0.717000
     35 O1           8.1970     3.5900    -0.8170 o          1 6MX      -0.736500
     36 O            8.6220     2.1660     0.7410 o          1 6MX      -0.736500
     37 H1          -2.8310     1.3780     0.4510 hn         1 6MX       0.310500
     38 H2          -4.5130    -0.7670     1.5350 h1         1 6MX       0.076700
     39 H3          -4.9430     1.6430     2.1360 hc         1 6MX       0.069700
     40 H4          -5.9530     3.1830     0.4230 hc         1 6MX       0.041450
     41 H5          -4.3290     2.7310    -0.0620 hc         1 6MX       0.041450
     42 H6          -6.8150    -0.0250     2.2220 hc         1 6MX       0.049950
     43 H7          -7.4210     1.5640     1.7760 hc         1 6MX       0.049950
     44 H8          -9.0450    -0.6080    -0.5510 ho         1 6MX       0.438000
     45 H9          -7.7740     0.8570    -1.9350 hc         1 6MX       0.041200
     46 H10         -7.9990     2.0880    -0.6970 hc         1 6MX       0.041200
     47 H11         -5.9000     2.5250    -2.0060 hc         1 6MX       0.048700
     48 H12         -5.3920     0.1410    -2.6310 hc         1 6MX       0.041450
     49 H13         -3.9910     0.8960    -1.8910 hc         1 6MX       0.041450
     50 H14         -6.4840    -1.8460     0.3970 hc         1 6MX       0.049950
     51 H15         -6.8650    -1.4870    -1.2820 hc         1 6MX       0.049950
     52 H16         -4.3930    -1.3960    -0.9120 hc         1 6MX       0.069700
     53 H17         -1.2290     2.0690     1.5410 ha         1 6MX       0.099000
     54 H18          1.0120     3.0920     1.3050 ha         1 6MX       0.123000
     55 H19          2.7320    -2.1400    -0.8760 h1         1 6MX       0.093700
     56 H20          1.3020    -4.8510    -1.0250 hc         1 6MX       0.046700
     57 H21          2.0000    -3.9690    -2.3800 hc         1 6MX       0.046700
     58 H22          3.5490    -5.7780    -1.5650 hc         1 6MX       0.041450
     59 H23          4.2860    -4.1840    -1.4280 hc         1 6MX       0.041450
     60 H24          2.9820    -5.7930     0.8550 hc         1 6MX       0.033700
     61 H25          4.7020    -5.4700     0.6590 hc         1 6MX       0.033700
     62 H26          3.6510    -3.9250     2.3540 hc         1 6MX       0.041450
     63 H27          4.3480    -3.0330     1.0050 hc         1 6MX       0.041450
     64 H28          2.1040    -2.1210     1.5480 hc         1 6MX       0.046700
     65 H29          1.3650    -3.7100     1.3910 hc         1 6MX       0.046700
     66 H30          2.8280     4.0160     0.0370 h1         1 6MX       0.035700
     67 H31          3.6140     3.4300     1.5300 h1         1 6MX       0.035700
     68 H32          4.8120     3.5820    -1.3180 hc         1 6MX       0.065700
     69 H33          5.5230     4.2010     0.1770 hc         1 6MX       0.065700
     70 H34          4.3690     0.0970     0.1080 h1         1 6MX       0.049200
     71 H35          4.2440     0.9470    -1.4570 h1         1 6MX       0.049200
     72 H36          5.7190     1.8610     1.1000 hc         1 6MX       0.068700
     73 H37          7.0470     0.5990    -0.4930 hc         1 6MX       0.024200
     74 H38          6.6400     1.8250    -1.7910 hc         1 6MX       0.024200
@<TRIPOS>BOND
     1     1     2 2   
     2     2     3 1   
     3     2    15 1   
     4     3     4 1   
     5     3    37 1   
     6     4     5 1   
     7     4    14 1   
     8     4    38 1   
     9     5     6 1   
    10     5     7 1   
    11     5    39 1   
    12     6    11 1   
    13     6    40 1   
    14     6    41 1   
    15     7     8 1   
    16     7    42 1   
    17     7    43 1   
    18     8     9 1   
    19     8    10 1   
    20     8    13 1   
    21     9    44 1   
    22    10    11 1   
    23    10    45 1   
    24    10    46 1   
    25    11    12 1   
    26    11    47 1   
    27    12    14 1   
    28    12    48 1   
    29    12    49 1   
    30    13    14 1   
    31    13    50 1   
    32    13    51 1   
    33    14    52 1   
    34    15    16 ar  
    35    15    18 ar  
    36    16    17 ar  
    37    16    53 1   
    38    17    27 ar  
    39    17    54 1   
    40    18    19 1   
    41    18    26 ar  
    42    19    20 1   
    43    20    21 1   
    44    20    25 1   
    45    20    55 1   
    46    21    22 1   
    47    21    56 1   
    48    21    57 1   
    49    22    23 1   
    50    22    58 1   
    51    22    59 1   
    52    23    24 1   
    53    23    60 1   
    54    23    61 1   
    55    24    25 1   
    56    24    62 1   
    57    24    63 1   
    58    25    64 1   
    59    25    65 1   
    60    26    27 ar  
    61    27    28 1   
    62    28    29 1   
    63    28    31 1   
    64    29    30 1   
    65    29    66 1   
    66    29    67 1   
    67    30    32 1   
    68    30    68 1   
    69    30    69 1   
    70    31    32 1   
    71    31    70 1   
    72    31    71 1   
    73    32    33 1   
    74    32    72 1   
    75    33    34 1   
    76    33    73 1   
    77    33    74 1   
    78    34    35 1   
    79    34    36 1   
@<TRIPOS>SUBSTRUCTURE
     1 6MX         1 TEMP              0 ****  ****    0 ROOT
