@<TRIPOS>MOLECULE
6MX
   74    79     1     0     0
SMALL
abcg2


@<TRIPOS>ATOM
      1 O2          -2.2520    -1.3960     1.2250 o          1 6MX      -0.608100
      2 C17         -2.0930    -0.2240     0.8980 c          1 6MX       0.631700
      3 N2          -3.1290     0.6000     0.6470 ns         1 6MX      -0.508900
      4 C18         -4.5130     0.1850     0.7660 c6         1 6MX       0.122700
      5 C23         -5.4210     1.3970     1.0130 c6         1 6MX      -0.074200
      6 C22         -5.4460     2.3180    -0.2100 c6         1 6MX      -0.070900
      7 C24         -6.8390     0.8920     1.2910 c6         1 6MX      -0.077900
      8 C25         -7.3660     0.1160     0.0860 c6         1 6MX       0.177000
      9 O3          -8.6750    -0.3160     0.4080 oh         1 6MX      -0.658000
     10 C26         -7.3670     1.0320    -1.1410 c6         1 6MX      -0.097400
     11 C21         -5.9510     1.5380    -1.4260 c6         1 6MX      -0.056700
     12 C20         -5.0290     0.3450    -1.6890 c6         1 6MX      -0.070900
     13 C27         -6.4370    -1.0720    -0.1800 c6         1 6MX      -0.077900
     14 C19         -5.0180    -0.5770    -0.4700 c6         1 6MX      -0.074200
     15 C9          -0.7400     0.3580     0.7630 ca         1 6MX      -0.302600
     16 C8          -0.4920     1.7260     0.9230 ca         1 6MX       0.000000
     17 C7           0.7680     2.2560     0.8080 ca         1 6MX      -0.272000
     18 C10          0.3880    -0.4420     0.5070 ca         1 6MX       0.584300
     19 S            0.2250    -2.1900     0.2860 ss         1 6MX      -0.333300
     20 C11          1.9070    -2.6800    -0.2210 c6         1 6MX       0.052300
     21 C16          1.7830    -3.9390    -1.0780 c6         1 6MX      -0.062900
     22 C15          3.1640    -4.4260    -1.5130 c6         1 6MX      -0.074900
     23 C14          4.0790    -4.6610    -0.3160 c6         1 6MX      -0.073400
     24 C13          4.1860    -3.4100     0.5500 c6         1 6MX      -0.074900
     25 C12          2.8070    -2.9220     0.9860 c6         1 6MX      -0.062900
     26 N1           1.6010     0.0550     0.3810 nb         1 6MX      -0.802000
     27 C6           1.8240     1.3670     0.5130 ca         1 6MX       0.675900
     28 N            3.0900     1.7810     0.3640 nh         1 6MX      -0.762300
     29 C4           3.5050     3.1740     0.4140 c5         1 6MX       0.214800
     30 C3           4.9500     3.1250    -0.0660 c5         1 6MX      -0.080400
     31 C5           4.2050     0.8730     0.1520 c5         1 6MX       0.212800
     32 C2           5.4330     1.7500     0.3860 c5         1 6MX      -0.050700
     33 C1           6.6730     1.2340    -0.3170 c3         1 6MX      -0.202400
     34 C            7.9770     1.9990    -0.0310 c          1 6MX       0.717000
     35 O1           8.9390     1.7380    -0.7840 o          1 6MX      -0.736500
     36 O            7.9910     2.7930     0.9300 o          1 6MX      -0.736500
     37 H1          -2.9410     1.4960     0.2290 hn         1 6MX       0.310500
     38 H2          -4.5750    -0.4770     1.6340 h1         1 6MX       0.076700
     39 H3          -5.0550     1.9410     1.8880 hc         1 6MX       0.069700
     40 H4          -6.1010     3.1710    -0.0060 hc         1 6MX       0.041450
     41 H5          -4.4590     2.7480    -0.4140 hc         1 6MX       0.041450
     42 H6          -6.8430     0.2490     2.1780 hc         1 6MX       0.049950
     43 H7          -7.4980     1.7390     1.5080 hc         1 6MX       0.049950
     44 H8          -9.0270    -0.7930    -0.3510 ho         1 6MX       0.438000
     45 H9          -7.7490     0.4820    -2.0090 hc         1 6MX       0.041200
     46 H10         -8.0460     1.8740    -0.9710 hc         1 6MX       0.041200
     47 H11         -5.9670     2.1930    -2.3010 hc         1 6MX       0.048700
     48 H12         -5.3720    -0.2070    -2.5690 hc         1 6MX       0.041450
     49 H13         -4.0160     0.6890    -1.9190 hc         1 6MX       0.041450
     50 H14         -6.4370    -1.7370     0.6890 hc         1 6MX       0.049950
     51 H15         -6.8090    -1.6540    -1.0310 hc         1 6MX       0.049950
     52 H16         -4.3640    -1.4340    -0.6500 hc         1 6MX       0.069700
     53 H17         -1.3040     2.3990     1.1730 ha         1 6MX       0.099000
     54 H18          0.9350     3.3120     0.9570 ha         1 6MX       0.123000
     55 H19          2.3220    -1.8700    -0.8240 h1         1 6MX       0.093700
     56 H20          1.2860    -4.7300    -0.5070 hc         1 6MX       0.046700
     57 H21          1.1590    -3.7380    -1.9520 hc         1 6MX       0.046700
     58 H22          3.0620    -5.3430    -2.0990 hc         1 6MX       0.041450
     59 H23          3.6180    -3.6820    -2.1770 hc         1 6MX       0.041450
     60 H24          3.6790    -5.4840     0.2860 hc         1 6MX       0.033700
     61 H25          5.0700    -4.9750    -0.6540 hc         1 6MX       0.033700
     62 H26          4.8060    -3.6060     1.4280 hc         1 6MX       0.041450
     63 H27          4.6880    -2.6180    -0.0170 hc         1 6MX       0.041450
     64 H28          2.8940    -2.0050     1.5700 hc         1 6MX       0.046700
     65 H29          2.3410    -3.6720     1.6350 hc         1 6MX       0.046700
     66 H30          2.8730     3.8000    -0.2200 h1         1 6MX       0.035700
     67 H31          3.4370     3.5650     1.4360 h1         1 6MX       0.035700
     68 H32          4.9850     3.1940    -1.1580 hc         1 6MX       0.065700
     69 H33          5.5490     3.9380     0.3390 hc         1 6MX       0.065700
     70 H34          4.1610     0.0260     0.8390 h1         1 6MX       0.049200
     71 H35          4.1890     0.4640    -0.8660 h1         1 6MX       0.049200
     72 H36          5.6210     1.7900     1.4640 hc         1 6MX       0.068700
     73 H37          6.8380     0.1860    -0.0340 hc         1 6MX       0.024200
     74 H38          6.5020     1.2150    -1.3990 hc         1 6MX       0.024200
@<TRIPOS>BOND
     1     1     2 2   
     2     2     3 1   
     3     2    15 1   
     4     3     4 1   
     5     3    37 1   
     6     4     5 1   
     7     4    14 1   
     8     4    38 1   
     9     5     6 1   
    10     5     7 1   
    11     5    39 1   
    12     6    11 1   
    13     6    40 1   
    14     6    41 1   
    15     7     8 1   
    16     7    42 1   
    17     7    43 1   
    18     8     9 1   
    19     8    10 1   
    20     8    13 1   
    21     9    44 1   
    22    10    11 1   
    23    10    45 1   
    24    10    46 1   
    25    11    12 1   
    26    11    47 1   
    27    12    14 1   
    28    12    48 1   
    29    12    49 1   
    30    13    14 1   
    31    13    50 1   
    32    13    51 1   
    33    14    52 1   
    34    15    16 ar  
    35    15    18 ar  
    36    16    17 ar  
    37    16    53 1   
    38    17    27 ar  
    39    17    54 1   
    40    18    19 1   
    41    18    26 ar  
    42    19    20 1   
    43    20    21 1   
    44    20    25 1   
    45    20    55 1   
    46    21    22 1   
    47    21    56 1   
    48    21    57 1   
    49    22    23 1   
    50    22    58 1   
    51    22    59 1   
    52    23    24 1   
    53    23    60 1   
    54    23    61 1   
    55    24    25 1   
    56    24    62 1   
    57    24    63 1   
    58    25    64 1   
    59    25    65 1   
    60    26    27 ar  
    61    27    28 1   
    62    28    29 1   
    63    28    31 1   
    64    29    30 1   
    65    29    66 1   
    66    29    67 1   
    67    30    32 1   
    68    30    68 1   
    69    30    69 1   
    70    31    32 1   
    71    31    70 1   
    72    31    71 1   
    73    32    33 1   
    74    32    72 1   
    75    33    34 1   
    76    33    73 1   
    77    33    74 1   
    78    34    35 1   
    79    34    36 1   
@<TRIPOS>SUBSTRUCTURE
     1 6MX         1 TEMP              0 ****  ****    0 ROOT
