@<TRIPOS>MOLECULE
6MY
   40    42     1     0     0
SMALL
abcg2


@<TRIPOS>ATOM
      1 C6           3.7990     0.0730     0.0680 ca         1 6MY       0.001000
      2 C8           6.1240     0.4380     0.6280 ca         1 6MY      -0.104500
      3 N5           1.3370    -0.0070    -0.3420 na         1 6MY      -0.274500
      4 C9           6.4780     0.3320    -0.7120 ca         1 6MY      -0.109000
      5 C5          -3.1320     1.0960    -0.2140 c6         1 6MY       0.169300
      6 C4          -4.0020    -0.1350     0.0470 c6         1 6MY       0.143300
      7 O4          -5.2450     0.0670    -0.5790 oh         1 6MY      -0.719000
      8 O5          -1.8500     0.9050     0.3510 os         1 6MY      -0.417000
      9 C1          -1.1470    -0.1820    -0.2050 c6         1 6MY       0.154000
     10 C2          -1.8920    -1.4840     0.0790 c6         1 6MY       0.115300
     11 O2          -1.1640    -2.5300    -0.5170 oh         1 6MY      -0.719000
     12 C3          -3.3030    -1.3780    -0.4910 c6         1 6MY       0.100300
     13 O3          -4.0950    -2.4950    -0.1520 oh         1 6MY      -0.667000
     14 C14          0.2210    -0.1980     0.3860 cc         1 6MY       0.416800
     15 N2           0.5080    -0.3860     1.6500 nd         1 6MY      -0.658000
     16 C15          1.8640    -0.3070     1.7360 cd         1 6MY       0.251900
     17 C13          2.4160    -0.0700     0.4990 cc         1 6MY      -0.151000
     18 C7           4.7990     0.3150     1.0140 ca         1 6MY      -0.104500
     19 C10          5.4920     0.0970    -1.6600 ca         1 6MY      -0.104500
     20 C11          4.1660    -0.0350    -1.2760 ca         1 6MY      -0.104500
     21 H1           6.8820     0.6250     1.3770 ha         1 6MY       0.114000
     22 H2           1.3610     0.1790    -1.3330 hn         1 6MY       0.354000
     23 H3           7.5130     0.4320    -1.0120 ha         1 6MY       0.115000
     24 H4          -3.3220     4.2410     0.4040 ho         1 6MY       0.505000
     25 H8          -4.1220    -0.2480     1.1370 h1         1 6MY       0.059700
     26 H9          -5.7810    -0.7210    -0.4380 ho         1 6MY       0.523000
     27 H10         -1.0540    -0.0620    -1.2970 h1         1 6MY       0.043700
     28 H11         -1.9510    -1.6110     1.1680 h1         1 6MY       0.081700
     29 H12         -1.3580    -3.3480    -0.0510 ho         1 6MY       0.514000
     30 H13         -3.2230    -1.2760    -1.5840 h1         1 6MY       0.050700
     31 H14         -3.9010    -3.2120    -0.7630 ho         1 6MY       0.453000
     32 H16          2.3810    -0.4390     2.6740 h4         1 6MY       0.038100
     33 H17          4.5390     0.4200     2.0600 ha         1 6MY       0.110500
     34 H18          5.7540     0.0100    -2.7070 ha         1 6MY       0.114000
     35 H19          3.4230    -0.2360    -2.0370 ha         1 6MY       0.110500
     36 H7          -3.0440     1.2360    -1.3040 h1         1 6MY       0.057700
     37 C12         -3.7210     2.3480     0.4000 c3         1 6MY       0.172600
     38 H5          -3.7760     2.2190     1.4900 h1         1 6MY       0.038200
     39 O6          -2.9160     3.4470     0.0440 oh         1 6MY      -0.712000
     40 H6          -4.7470     2.4630     0.0360 h1         1 6MY       0.038200
@<TRIPOS>BOND
     1     1    17 1   
     2     1    18 ar  
     3     1    20 ar  
     4     2     4 ar  
     5     2    18 ar  
     6     2    21 1   
     7     3    14 1   
     8     3    17 1   
     9     3    22 1   
    10     4    19 ar  
    11     4    23 1   
    12     5     6 1   
    13     5     8 1   
    14     5    36 1   
    15     5    37 1   
    16     6     7 1   
    17     6    12 1   
    18     6    25 1   
    19     7    26 1   
    20     8     9 1   
    21     9    10 1   
    22     9    14 1   
    23     9    27 1   
    24    10    11 1   
    25    10    12 1   
    26    10    28 1   
    27    11    29 1   
    28    12    13 1   
    29    12    30 1   
    30    13    31 1   
    31    14    15 2   
    32    15    16 1   
    33    16    17 2   
    34    16    32 1   
    35    18    33 1   
    36    19    20 ar  
    37    19    34 1   
    38    20    35 1   
    39    24    39 1   
    40    37    38 1   
    41    37    39 1   
    42    37    40 1   
@<TRIPOS>SUBSTRUCTURE
     1 6MY         1 TEMP              0 ****  ****    0 ROOT
