@<TRIPOS>MOLECULE
6MY
   40    42     1     0     0
SMALL
No Charge or Current Charge


@<TRIPOS>ATOM
      1 C6           3.6900     0.0290     0.0910 ca         1 6MY       0.001000
      2 C8           6.1100    -0.0360     0.4650 ca         1 6MY      -0.104500
      3 N5           1.1520    -0.0800    -0.2590 na         1 6MY      -0.274500
      4 C9           6.2050     1.3280     0.1500 ca         1 6MY      -0.109000
      5 C5          -2.9770     0.8250    -0.9060 c6         1 6MY       0.169300
      6 C4          -3.9140     0.2820     0.2170 c6         1 6MY       0.143300
      7 O4          -5.3070     0.4800    -0.0850 oh         1 6MY      -0.719000
      8 O5          -1.5930     0.5470    -0.5620 os         1 6MY      -0.417000
      9 C1          -1.2720    -0.8650    -0.4270 c6         1 6MY       0.154000
     10 C2          -2.1370    -1.4860     0.7190 c6         1 6MY       0.115300
     11 O2          -1.8960    -2.9030     0.8720 oh         1 6MY      -0.719000
     12 C3          -3.6440    -1.2360     0.4220 c6         1 6MY       0.100300
     13 O3          -4.4570    -1.7600     1.4860 oh         1 6MY      -0.667000
     14 C14          0.2110    -1.0780    -0.1550 cc         1 6MY       0.416800
     15 N2           0.7950    -2.2190     0.2100 nd         1 6MY      -0.658000
     16 C15          2.1440    -1.9470     0.3430 cd         1 6MY       0.251900
     17 C13          2.3760    -0.6250     0.0550 cc         1 6MY      -0.151000
     18 C7           4.8610    -0.6820     0.4360 ca         1 6MY      -0.104500
     19 C10          5.0500     2.0460    -0.1940 ca         1 6MY      -0.104500
     20 C11          3.8010     1.4010    -0.2230 ca         1 6MY      -0.104500
     21 H1           7.0040    -0.5960     0.7320 ha         1 6MY       0.114000
     22 H2           0.9490     0.8760    -0.5190 hn         1 6MY       0.354000
     23 H3           7.1720     1.8270     0.1720 ha         1 6MY       0.115000
     24 H4          -2.3610     3.8770    -2.1270 ho         1 6MY       0.505000
     25 H8          -3.6610     0.8050     1.1530 h1         1 6MY       0.059700
     26 H9          -5.7780    -0.1780     0.4840 ho         1 6MY       0.523000
     27 H10         -1.5290    -1.3600    -1.3750 h1         1 6MY       0.043700
     28 H11         -1.8760    -0.9600     1.6520 h1         1 6MY       0.081700
     29 H12         -0.9130    -3.0190     0.7790 ho         1 6MY       0.514000
     30 H13         -3.8900    -1.7560    -0.5170 h1         1 6MY       0.050700
     31 H14         -4.0180    -2.6040     1.7440 ho         1 6MY       0.453000
     32 H16          2.8480    -2.7160     0.6340 h4         1 6MY       0.038100
     33 H17          4.8190    -1.7390     0.6850 ha         1 6MY       0.110500
     34 H18          5.1210     3.1040    -0.4390 ha         1 6MY       0.114000
     35 H19          2.9200     1.9770    -0.4920 ha         1 6MY       0.110500
     36 H7          -3.2130     0.3230    -1.8550 h1         1 6MY       0.057700
     37 C12         -3.1290     2.3670    -1.1180 c3         1 6MY       0.172600
     38 H5          -2.9740     2.8610    -0.1490 h1         1 6MY       0.038200
     39 O6          -2.2140     2.9020    -2.0980 oh         1 6MY      -0.712000
     40 H6          -4.1640     2.5710    -1.4240 h1         1 6MY       0.038200
@<TRIPOS>BOND
     1     1    17 1   
     2     1    18 ar  
     3     1    20 ar  
     4     2     4 ar  
     5     2    18 ar  
     6     2    21 1   
     7     3    14 1   
     8     3    17 1   
     9     3    22 1   
    10     4    19 ar  
    11     4    23 1   
    12     5     6 1   
    13     5     8 1   
    14     5    36 1   
    15     5    37 1   
    16     6     7 1   
    17     6    12 1   
    18     6    25 1   
    19     7    26 1   
    20     8     9 1   
    21     9    10 1   
    22     9    14 1   
    23     9    27 1   
    24    10    11 1   
    25    10    12 1   
    26    10    28 1   
    27    11    29 1   
    28    12    13 1   
    29    12    30 1   
    30    13    31 1   
    31    14    15 2   
    32    15    16 1   
    33    16    17 2   
    34    16    32 1   
    35    18    33 1   
    36    19    20 ar  
    37    19    34 1   
    38    20    35 1   
    39    24    39 1   
    40    37    38 1   
    41    37    39 1   
    42    37    40 1   
@<TRIPOS>SUBSTRUCTURE
     1 6MY         1 TEMP              0 ****  ****    0 ROOT
