@<TRIPOS>MOLECULE
6N0
   42    45     1     0     0
SMALL
No Charge or Current Charge


@<TRIPOS>ATOM
      1 C1          -4.4770    -3.3300     0.3100 ca         1 6N0      -0.066000
      2 C2          -5.7470    -2.7500     0.0890 ca         1 6N0      -0.117000
      3 C6          -3.3120    -2.5320     0.3220 ca         1 6N0      -0.093000
      4 C10         -0.4690     2.0080    -0.0250 ca         1 6N0      -0.146000
      5 C3          -5.8700    -1.3620    -0.1240 ca         1 6N0       0.008000
      6 C11         -1.8400     2.2670    -0.2100 ca         1 6N0       0.040000
      7 C8          -0.9310    -0.3790     0.2710 ca         1 6N0      -0.162000
      8 C5          -3.4170    -1.1400     0.1110 cp         1 6N0       0.017000
      9 C7          -2.3090    -0.1380     0.0870 cp         1 6N0       0.056000
     10 C9          -0.0040     0.6870     0.2200 ca         1 6N0       0.044000
     11 C4          -4.6960    -0.6000    -0.1060 ca         1 6N0      -0.238500
     12 C12         -2.7180     1.1820    -0.1460 ca         1 6N0      -0.284500
     13 C21          5.9110     0.7220    -0.4750 c6         1 6N0      -0.158900
     14 C23          4.6700    -1.5320    -0.5380 c6         1 6N0      -0.158900
     15 C20          5.0430     1.1150     0.7430 c6         1 6N0       0.100000
     16 C24          3.8490    -1.0630     0.6850 c6         1 6N0       0.100000
     17 C22          6.0390    -0.8150    -0.5870 c6         1 6N0       0.184000
     18 N19          3.7260     0.4240     0.6860 n          1 6N0      -0.418800
     19 N16          1.3660     0.3590     0.4110 ns         1 6N0      -0.161000
     20 O18          2.4990     2.3590     0.4960 o          1 6N0      -0.602100
     21 F26          6.8550    -1.2930     0.4540 f          1 6N0      -0.119500
     22 S13         -4.4910     1.1580    -0.3360 sy         1 6N0       1.028000
     23 H1          -4.3960    -4.4030     0.4730 ha         1 6N0       0.118000
     24 H2          -6.6360    -3.3770     0.0820 ha         1 6N0       0.122000
     25 H6          -2.3420    -2.9920     0.4940 ha         1 6N0       0.118000
     26 H3          -6.8420    -0.9030    -0.2960 ha         1 6N0       0.132000
     27 H10          0.2160     2.8470    -0.0830 ha         1 6N0       0.149000
     28 H11         -2.2020     3.2760    -0.3990 ha         1 6N0       0.133000
     29 H8          -0.5810    -1.3920     0.4530 ha         1 6N0       0.115000
     30 H16          1.5350    -0.6340     0.4700 hn         1 6N0       0.153000
     31 H211         5.4530     1.1200    -1.3900 hc         1 6N0       0.080950
     32 H212         6.9050     1.1810    -0.3940 hc         1 6N0       0.080950
     33 H201         5.5570     0.8290     1.6720 h1         1 6N0       0.069200
     34 H202         4.9200     2.2070     0.7680 h1         1 6N0       0.069200
     35 H231         4.8130    -2.6210    -0.5030 hc         1 6N0       0.080950
     36 H232         4.1090    -1.3170    -1.4580 hc         1 6N0       0.080950
     37 H241         2.8730    -1.5670     0.6850 h1         1 6N0       0.069200
     38 H242         4.3600    -1.3750     1.6080 h1         1 6N0       0.069200
     39 O14         -4.8330     1.5100    -1.7220 o          1 6N0      -0.515000
     40 C17          2.5110     1.1360     0.5250 c          1 6N0       0.660100
     41 O15         -5.1060     1.8710     0.7920 o          1 6N0      -0.515000
     42 F25          6.6940    -1.1420    -1.7860 f          1 6N0      -0.119500
@<TRIPOS>BOND
     1     1     2 ar  
     2     1     3 ar  
     3     1    23 1   
     4     2     5 ar  
     5     2    24 1   
     6     3     8 ar  
     7     3    25 1   
     8     4     6 ar  
     9     4    10 ar  
    10     4    27 1   
    11     5    11 ar  
    12     5    26 1   
    13     6    12 ar  
    14     6    28 1   
    15     7     9 ar  
    16     7    10 ar  
    17     7    29 1   
    18     8     9 1   
    19     8    11 ar  
    20     9    12 ar  
    21    10    19 1   
    22    11    22 1   
    23    12    22 1   
    24    13    15 1   
    25    13    17 1   
    26    13    31 1   
    27    13    32 1   
    28    14    16 1   
    29    14    17 1   
    30    14    35 1   
    31    14    36 1   
    32    15    18 1   
    33    15    33 1   
    34    15    34 1   
    35    16    18 1   
    36    16    37 1   
    37    16    38 1   
    38    17    21 1   
    39    17    42 1   
    40    18    40 1   
    41    19    30 1   
    42    19    40 1   
    43    20    40 2   
    44    22    39 2   
    45    22    41 2   
@<TRIPOS>SUBSTRUCTURE
     1 6N0         1 TEMP              0 ****  ****    0 ROOT
