@<TRIPOS>MOLECULE
6N0
   42    45     1     0     0
SMALL
abcg2


@<TRIPOS>ATOM
      1 C1          -4.7660    -3.0410     0.8560 ca         1 6N0      -0.066000
      2 C2          -5.9210    -2.3760     0.4600 ca         1 6N0      -0.117000
      3 C6          -3.5180    -2.4340     0.7640 ca         1 6N0      -0.093000
      4 C10         -0.2220     1.5460    -0.4200 ca         1 6N0      -0.146000
      5 C3          -5.8510    -1.0800    -0.0400 ca         1 6N0       0.008000
      6 C11         -1.5380     1.8700    -0.7090 ca         1 6N0       0.040000
      7 C8          -0.9290    -0.6320     0.3760 ca         1 6N0      -0.162000
      8 C5          -3.4350    -1.1420     0.2690 cp         1 6N0       0.017000
      9 C7          -2.2370    -0.3100     0.0830 cp         1 6N0       0.056000
     10 C9           0.0920     0.2980     0.1350 ca         1 6N0       0.044000
     11 C4          -4.6050    -0.4970    -0.1220 ca         1 6N0      -0.238500
     12 C12         -2.5250     0.9430    -0.4500 ca         1 6N0      -0.284500
     13 C21          5.6800     1.0790    -0.0540 c6         1 6N0      -0.158900
     14 C23          4.7950    -1.0830    -0.9930 c6         1 6N0      -0.158900
     15 C20          4.8340     0.8180     1.1900 c6         1 6N0       0.100000
     16 C24          3.9760    -1.2550     0.2860 c6         1 6N0       0.100000
     17 C22          6.0130    -0.2280    -0.7350 c6         1 6N0       0.184000
     18 N19          3.6490     0.0420     0.8630 n          1 6N0      -0.418800
     19 N16          1.3840    -0.1120     0.4190 ns         1 6N0      -0.161000
     20 O18          2.3610     1.9110     0.7970 o          1 6N0      -0.602100
     21 F26          6.8950    -0.9320     0.0510 f          1 6N0      -0.119500
     22 S13         -4.2570     1.1370    -0.7170 sy         1 6N0       1.028000
     23 H1          -4.8380    -4.0490     1.2430 ha         1 6N0       0.118000
     24 H2          -6.8810    -2.8670     0.5430 ha         1 6N0       0.122000
     25 H6          -2.6300    -2.9680     1.0740 ha         1 6N0       0.118000
     26 H3          -6.7450    -0.5550    -0.3490 ha         1 6N0       0.132000
     27 H10          0.5510     2.2640    -0.6380 ha         1 6N0       0.149000
     28 H11         -1.7720     2.8350    -1.1370 ha         1 6N0       0.133000
     29 H8          -0.6820    -1.6010     0.7950 ha         1 6N0       0.115000
     30 H16          1.4660    -1.0850     0.6660 hn         1 6N0       0.153000
     31 H211         5.1220     1.7080    -0.7510 hc         1 6N0       0.080950
     32 H212         6.5950     1.6110     0.2160 hc         1 6N0       0.080950
     33 H201         5.4100     0.2570     1.9290 h1         1 6N0       0.069200
     34 H202         4.5470     1.7560     1.6550 h1         1 6N0       0.069200
     35 H231         5.0930    -2.0600    -1.3790 hc         1 6N0       0.080950
     36 H232         4.1790    -0.5980    -1.7540 hc         1 6N0       0.080950
     37 H241         3.0900    -1.8400     0.0580 h1         1 6N0       0.069200
     38 H242         4.5380    -1.8270     1.0260 h1         1 6N0       0.069200
     39 O14         -4.5690     1.2530    -2.1360 o          1 6N0      -0.515000
     40 C17          2.4680     0.7010     0.6870 c          1 6N0       0.660100
     41 O15         -4.8160     2.1430     0.1800 o          1 6N0      -0.515000
     42 F25          6.6840     0.0030    -1.9050 f          1 6N0      -0.119500
@<TRIPOS>BOND
     1     1     2 ar  
     2     1     3 ar  
     3     1    23 1   
     4     2     5 ar  
     5     2    24 1   
     6     3     8 ar  
     7     3    25 1   
     8     4     6 ar  
     9     4    10 ar  
    10     4    27 1   
    11     5    11 ar  
    12     5    26 1   
    13     6    12 ar  
    14     6    28 1   
    15     7     9 ar  
    16     7    10 ar  
    17     7    29 1   
    18     8     9 1   
    19     8    11 ar  
    20     9    12 ar  
    21    10    19 1   
    22    11    22 1   
    23    12    22 1   
    24    13    15 1   
    25    13    17 1   
    26    13    31 1   
    27    13    32 1   
    28    14    16 1   
    29    14    17 1   
    30    14    35 1   
    31    14    36 1   
    32    15    18 1   
    33    15    33 1   
    34    15    34 1   
    35    16    18 1   
    36    16    37 1   
    37    16    38 1   
    38    17    21 1   
    39    17    42 1   
    40    18    40 1   
    41    19    30 1   
    42    19    40 1   
    43    20    40 2   
    44    22    39 2   
    45    22    41 2   
@<TRIPOS>SUBSTRUCTURE
     1 6N0         1 TEMP              0 ****  ****    0 ROOT
