@<TRIPOS>MOLECULE
6N1
   42    44     1     0     0
SMALL
abcg2


@<TRIPOS>ATOM
      1 C1          -4.1730    -0.1570    -0.1180 ca         1 6N1      -0.163600
      2 C2          -4.3780     1.2250    -0.2590 ca         1 6N1      -0.102000
      3 C3          -3.3210     2.1210    -0.3050 ca         1 6N1      -0.083000
      4 C4          -2.0250     1.6230    -0.2050 ca         1 6N1       0.130400
      5 N5          -0.4690     0.0770    -0.0110 na         1 6N1      -0.346600
      6 C12         -1.8360     0.2330    -0.0770 ca         1 6N1      -0.105200
      7 C13         -2.8760    -0.6680    -0.0420 ca         1 6N1      -0.045000
      8 O           -5.1350    -2.3020    -0.4280 o          1 6N1      -0.571100
      9 C           -5.2950    -1.1400    -0.0860 c          1 6N1       0.637700
     10 N1          -6.4720    -0.6510     0.3560 ns         1 6N1      -0.410300
     11 N           -7.6010    -1.4480     0.4030 n8         1 6N1      -0.721200
     12 C5           0.0800     1.3190    -0.1030 cc         1 6N1       0.666700
     13 N2          -0.8210     2.2730    -0.2180 nd         1 6N1      -0.654100
     14 N3           1.4090     1.5280    -0.1080 nu         1 6N1      -0.896400
     15 C6           2.3770     0.5170     0.2570 c3         1 6N1       0.219800
     16 H1          -5.3800     1.6180    -0.3670 ha         1 6N1       0.107000
     17 H2          -3.5010     3.1810    -0.4260 ha         1 6N1       0.129000
     18 H3           0.0210    -0.7960     0.1030 hn         1 6N1       0.359000
     19 H4          -2.7030    -1.7320     0.0520 ha         1 6N1       0.137000
     20 H5          -6.5140     0.2750     0.7560 hn         1 6N1       0.300500
     21 H6          -7.9140    -1.5270     1.3620 hn         1 6N1       0.395500
     22 H7          -8.3410    -1.0020    -0.1240 hn         1 6N1       0.395500
     23 H9           1.6750     2.4910     0.0350 hn         1 6N1       0.507000
     24 H10          2.3630     0.3020     1.3310 h1         1 6N1       0.045200
     25 H11          2.1300    -0.4090    -0.2660 h1         1 6N1       0.045200
     26 C7           3.7710     0.9770    -0.1470 c3         1 6N1       0.157800
     27 N4           4.7780     0.0020     0.2110 n3         1 6N1      -0.722600
     28 C9           6.1010     0.5930     0.3150 c6         1 6N1       0.126800
     29 C10          7.1030    -0.4540     0.7600 c6         1 6N1       0.153100
     30 O1           7.1330    -1.5530    -0.1240 os         1 6N1      -0.446000
     31 C14          5.8540    -2.1350    -0.2410 c6         1 6N1       0.153100
     32 C15          4.8210    -1.1250    -0.7050 c6         1 6N1       0.126800
     33 H8           3.7820     1.2160    -1.2220 h1         1 6N1       0.043700
     34 H12          3.9960     1.9060     0.3840 h1         1 6N1       0.043700
     35 H13          6.4310     1.0350    -0.6410 h1         1 6N1       0.042700
     36 H14          6.0810     1.3990     1.0530 h1         1 6N1       0.042700
     37 H15          8.1060    -0.0260     0.7860 h1         1 6N1       0.053200
     38 H16          6.8500    -0.7870     1.7770 h1         1 6N1       0.053200
     39 H17          5.9300    -2.9500    -0.9620 h1         1 6N1       0.053200
     40 H18          5.5360    -2.5620     0.7210 h1         1 6N1       0.053200
     41 H19          3.8500    -1.6230    -0.7430 h1         1 6N1       0.042700
     42 H20          5.0590    -0.7990    -1.7330 h1         1 6N1       0.042700
@<TRIPOS>BOND
     1     1     2 ar  
     2     1     7 ar  
     3     1     9 1   
     4     2     3 ar  
     5     2    16 1   
     6     3     4 ar  
     7     3    17 1   
     8     4     6 ar  
     9     4    13 1   
    10     5     6 1   
    11     5    12 1   
    12     5    18 1   
    13     6     7 ar  
    14     7    19 1   
    15     8     9 2   
    16     9    10 1   
    17    10    11 1   
    18    10    20 1   
    19    11    21 1   
    20    11    22 1   
    21    12    13 2   
    22    12    14 1   
    23    14    15 1   
    24    14    23 1   
    25    15    24 1   
    26    15    25 1   
    27    15    26 1   
    28    26    27 1   
    29    26    33 1   
    30    26    34 1   
    31    27    28 1   
    32    27    32 1   
    33    28    29 1   
    34    28    35 1   
    35    28    36 1   
    36    29    30 1   
    37    29    37 1   
    38    29    38 1   
    39    30    31 1   
    40    31    32 1   
    41    31    39 1   
    42    31    40 1   
    43    32    41 1   
    44    32    42 1   
@<TRIPOS>SUBSTRUCTURE
     1 6N1         1 TEMP              0 ****  ****    0 ROOT
