@<TRIPOS>MOLECULE
6N1
   42    44     1     0     0
SMALL
No Charge or Current Charge


@<TRIPOS>ATOM
      1 C1          -4.3350    -0.1770     0.0990 ca         1 6N1      -0.163600
      2 C2          -4.4890     1.2330    -0.0690 ca         1 6N1      -0.102000
      3 C3          -3.3640     2.0800    -0.1790 ca         1 6N1      -0.083000
      4 C4          -2.0880     1.5100    -0.1200 ca         1 6N1       0.130400
      5 N5          -0.6010    -0.0800     0.0590 na         1 6N1      -0.346600
      6 C12         -1.9410     0.1620     0.0410 ca         1 6N1      -0.105200
      7 C13         -3.0240    -0.7180     0.1540 ca         1 6N1      -0.045000
      8 O           -5.3850    -2.3230     0.3650 o          1 6N1      -0.571100
      9 C           -5.5230    -1.1130     0.2210 c          1 6N1       0.637700
     10 N1          -6.7930    -0.5260     0.1600 ns         1 6N1      -0.410300
     11 N           -8.0640    -1.2450     0.2560 n8         1 6N1      -0.721200
     12 C5           0.0110     1.1450    -0.0920 cc         1 6N1       0.666700
     13 N2          -0.8530     2.1520    -0.2070 nd         1 6N1      -0.654100
     14 N3           1.3450     1.3430    -0.1270 nu         1 6N1      -0.896400
     15 C6           2.3970     0.3270     0.0690 c3         1 6N1       0.219800
     16 H1          -5.4740     1.6890    -0.1160 ha         1 6N1       0.107000
     17 H2          -3.4830     3.1530    -0.3070 ha         1 6N1       0.129000
     18 H3          -0.1290    -0.9650     0.1610 hn         1 6N1       0.359000
     19 H4          -2.8540    -1.7850     0.2810 ha         1 6N1       0.137000
     20 H5          -6.8080     0.4860     0.0380 hn         1 6N1       0.300500
     21 H6          -8.6280    -0.9100     1.0520 hn         1 6N1       0.395500
     22 H7          -8.6400    -1.1080    -0.5890 hn         1 6N1       0.395500
     23 H9           1.6010     2.3240    -0.2030 hn         1 6N1       0.507000
     24 H10          2.2720    -0.1480     1.0520 h1         1 6N1       0.045200
     25 H11          2.2940    -0.4530    -0.6960 h1         1 6N1       0.045200
     26 C7           3.8270     0.9360    -0.0090 c3         1 6N1       0.157800
     27 N4           4.9450    -0.0090     0.2690 n3         1 6N1      -0.722600
     28 C9           6.2650     0.6900     0.3790 c6         1 6N1       0.126800
     29 C10          7.4240    -0.3030     0.6930 c6         1 6N1       0.153100
     30 O1           7.4630    -1.3580    -0.2970 os         1 6N1      -0.446000
     31 C14          6.2230    -2.1020    -0.3680 c6         1 6N1       0.153100
     32 C15          5.0360    -1.1480    -0.7020 c6         1 6N1       0.126800
     33 H8           3.9580     1.3810    -1.0050 h1         1 6N1       0.043700
     34 H12          3.8700     1.7610     0.7150 h1         1 6N1       0.043700
     35 H13          6.4990     1.2140    -0.5600 h1         1 6N1       0.042700
     36 H14          6.2300     1.4510     1.1720 h1         1 6N1       0.042700
     37 H15          8.3850     0.2300     0.6910 h1         1 6N1       0.053200
     38 H16          7.2790    -0.7450     1.6900 h1         1 6N1       0.053200
     39 H17          6.3110    -2.8760    -1.1420 h1         1 6N1       0.053200
     40 H18          6.0430    -2.6000     0.5960 h1         1 6N1       0.053200
     41 H19          4.1100    -1.7410    -0.6950 h1         1 6N1       0.042700
     42 H20          5.1680    -0.7680    -1.7260 h1         1 6N1       0.042700
@<TRIPOS>BOND
     1     1     2 ar  
     2     1     7 ar  
     3     1     9 1   
     4     2     3 ar  
     5     2    16 1   
     6     3     4 ar  
     7     3    17 1   
     8     4     6 ar  
     9     4    13 1   
    10     5     6 1   
    11     5    12 1   
    12     5    18 1   
    13     6     7 ar  
    14     7    19 1   
    15     8     9 2   
    16     9    10 1   
    17    10    11 1   
    18    10    20 1   
    19    11    21 1   
    20    11    22 1   
    21    12    13 2   
    22    12    14 1   
    23    14    15 1   
    24    14    23 1   
    25    15    24 1   
    26    15    25 1   
    27    15    26 1   
    28    26    27 1   
    29    26    33 1   
    30    26    34 1   
    31    27    28 1   
    32    27    32 1   
    33    28    29 1   
    34    28    35 1   
    35    28    36 1   
    36    29    30 1   
    37    29    37 1   
    38    29    38 1   
    39    30    31 1   
    40    31    32 1   
    41    31    39 1   
    42    31    40 1   
    43    32    41 1   
    44    32    42 1   
@<TRIPOS>SUBSTRUCTURE
     1 6N1         1 TEMP              0 ****  ****    0 ROOT
