@<TRIPOS>MOLECULE
6N2
   43    45     1     0     0
SMALL
No Charge or Current Charge


@<TRIPOS>ATOM
      1 N1           7.8710     0.3340     0.0570 nv         1 6N2      -1.073200
      2 C2           4.0810    -1.6680    -0.3210 ca         1 6N2      -0.172000
      3 N3           0.4600    -0.8450    -0.1870 na         1 6N2      -0.349600
      4 C4           1.8200    -0.8910    -0.1470 ca         1 6N2      -0.120200
      5 C5           0.1080     0.4160     0.2460 cc         1 6N2       0.654700
      6 C6          -2.3910     0.1500    -0.0240 c3         1 6N2       0.219800
      7 C            6.6600     0.8000    -0.0910 c2         1 6N2       0.814100
      8 N            6.2830     1.7020    -0.8610 n2         1 6N2      -0.877100
      9 N2           5.9020    -0.2000     0.2910 nu         1 6N2      -0.932200
     10 C1           4.5330    -0.4070     0.1360 ca         1 6N2       0.308000
     11 C13          3.6010     0.6040     0.4590 ca         1 6N2      -0.097000
     12 C12          2.2380     0.3310     0.3030 ca         1 6N2       0.134400
     13 C3           2.7020    -1.9260    -0.4730 ca         1 6N2      -0.078000
     14 N6           1.1570     1.1750     0.5590 nd         1 6N2      -0.646100
     15 H1           8.5750     0.9510    -0.3230 hn         1 6N2       0.452000
     16 H2           8.0530     0.0750     1.0180 hn         1 6N2       0.452000
     17 H3           4.7980    -2.4490    -0.5610 ha         1 6N2       0.104000
     18 H4          -0.1800    -1.5710    -0.4700 hn         1 6N2       0.352000
     19 H5          -1.2150     1.8370     0.6580 hn         1 6N2       0.503000
     20 H6          -2.3490    -0.1170    -1.0890 h1         1 6N2       0.042700
     21 H7          -2.4580    -0.7810     0.5530 h1         1 6N2       0.042700
     22 H9           7.1140     2.2000    -1.1930 hn         1 6N2       0.380400
     23 H10          6.4550    -1.0410     0.2260 hn         1 6N2       0.487000
     24 H11          3.9320     1.5710     0.8210 ha         1 6N2       0.172000
     25 H12          2.3420    -2.8900    -0.8260 ha         1 6N2       0.112000
     26 C7          -3.6690     1.0010     0.2250 c3         1 6N2       0.155800
     27 N5          -4.9510     0.3820    -0.2170 n3         1 6N2      -0.718600
     28 C9          -6.1010     1.3370    -0.1340 c6         1 6N2       0.126300
     29 C10         -7.4310     0.6880    -0.6210 c6         1 6N2       0.152600
     30 O1          -7.6960    -0.5260     0.1210 os         1 6N2      -0.446000
     31 C14         -6.6330    -1.5000    -0.0070 c6         1 6N2       0.152600
     32 C15         -5.2840    -0.8990     0.4890 c6         1 6N2       0.126300
     33 H8          -3.7230     1.2380     1.2970 h1         1 6N2       0.043700
     34 H13         -3.5340     1.9540    -0.3040 h1         1 6N2       0.043700
     35 H14         -6.2380     1.6820     0.9010 h1         1 6N2       0.042700
     36 H15         -5.9020     2.2290    -0.7460 h1         1 6N2       0.042700
     37 H16         -8.2650     1.3890    -0.4750 h1         1 6N2       0.052200
     38 H17         -7.3640     0.4530    -1.6930 h1         1 6N2       0.052200
     39 H18         -6.8870    -2.3900     0.5850 h1         1 6N2       0.052200
     40 H19         -6.5440    -1.8040    -1.0600 h1         1 6N2       0.052200
     41 H20         -4.4960    -1.6490     0.3270 h1         1 6N2       0.042700
     42 H21         -5.3510    -0.7310     1.5740 h1         1 6N2       0.042700
     43 N4          -1.1590     0.8670     0.3550 nu         1 6N2      -0.897400
@<TRIPOS>BOND
     1     1     7 1   
     2     1    15 1   
     3     1    16 1   
     4     2    10 ar  
     5     2    13 ar  
     6     2    17 1   
     7     3     4 1   
     8     3     5 1   
     9     3    18 1   
    10     4    12 ar  
    11     4    13 ar  
    12     5    14 2   
    13     5    43 1   
    14     6    20 1   
    15     6    21 1   
    16     6    26 1   
    17     6    43 1   
    18     7     8 2   
    19     7     9 1   
    20     8    22 1   
    21     9    10 1   
    22     9    23 1   
    23    10    11 ar  
    24    11    12 ar  
    25    11    24 1   
    26    12    14 1   
    27    13    25 1   
    28    19    43 1   
    29    26    27 1   
    30    26    33 1   
    31    26    34 1   
    32    27    28 1   
    33    27    32 1   
    34    28    29 1   
    35    28    35 1   
    36    28    36 1   
    37    29    30 1   
    38    29    37 1   
    39    29    38 1   
    40    30    31 1   
    41    31    32 1   
    42    31    39 1   
    43    31    40 1   
    44    32    41 1   
    45    32    42 1   
@<TRIPOS>SUBSTRUCTURE
     1 6N2         1 TEMP              0 ****  ****    0 ROOT
