@<TRIPOS>MOLECULE
6N2
   43    45     1     0     0
SMALL
abcg2


@<TRIPOS>ATOM
      1 N1           7.9350     0.3810     0.0680 nv         1 6N2      -1.073200
      2 C2           3.8740    -1.7580    -0.3410 ca         1 6N2      -0.172000
      3 N3           0.2940    -0.7740    -0.2170 na         1 6N2      -0.349600
      4 C4           1.6680    -0.9160    -0.2310 ca         1 6N2      -0.120200
      5 C5           0.0370     0.5480    -0.0310 cc         1 6N2       0.654700
      6 C6          -2.3930     0.2650    -0.2640 c3         1 6N2       0.219800
      7 C            6.5960     0.7200     0.0880 c2         1 6N2       0.814100
      8 N            6.1320     1.9050     0.2210 n2         1 6N2      -0.877100
      9 N2           5.7880    -0.3680    -0.1220 nu         1 6N2      -0.932200
     10 C1           4.3960    -0.4640    -0.1510 ca         1 6N2       0.308000
     11 C13          3.5350     0.6230    -0.0040 ca         1 6N2      -0.097000
     12 C12          2.1630     0.3830    -0.0470 ca         1 6N2       0.134400
     13 C3           2.5100    -2.0010    -0.3830 ca         1 6N2      -0.078000
     14 N6           1.1260     1.2770     0.0720 nd         1 6N2      -0.646100
     15 H1           8.5550     1.0910     0.4230 hn         1 6N2       0.452000
     16 H2           8.1820    -0.5310     0.4190 hn         1 6N2       0.452000
     17 H3           4.5560    -2.5930    -0.4540 ha         1 6N2       0.104000
     18 H4          -0.3810    -1.5110    -0.3380 hn         1 6N2       0.352000
     19 H5          -1.2790     2.0370    -0.0420 hn         1 6N2       0.503000
     20 H6          -2.4470     0.0300    -1.3330 h1         1 6N2       0.042700
     21 H7          -2.3550    -0.6820     0.2800 h1         1 6N2       0.042700
     22 H9           6.8850     2.5590     0.4000 hn         1 6N2       0.380400
     23 H10          6.2670    -1.2340    -0.3110 hn         1 6N2       0.487000
     24 H11          3.9230     1.6180     0.1360 ha         1 6N2       0.172000
     25 H12          2.1360    -3.0060    -0.5290 ha         1 6N2       0.112000
     26 C7          -3.6360     1.0480     0.1400 c3         1 6N2       0.155800
     27 N5          -4.8580     0.3420    -0.1770 n3         1 6N2      -0.718600
     28 C9          -6.0020     1.2390    -0.1820 c6         1 6N2       0.126300
     29 C10         -7.2610     0.4820    -0.5560 c6         1 6N2       0.152600
     30 O1          -7.4970    -0.5980     0.3190 os         1 6N2      -0.446000
     31 C14         -6.3970    -1.4790     0.3280 c6         1 6N2       0.152600
     32 C15         -5.1140    -0.7720     0.7220 c6         1 6N2       0.126300
     33 H8          -3.5710     1.3100     1.2090 h1         1 6N2       0.043700
     34 H13         -3.6390     1.9900    -0.4160 h1         1 6N2       0.043700
     35 H14         -6.1430     1.7280     0.7970 h1         1 6N2       0.042700
     36 H15         -5.8370     2.0300    -0.9170 h1         1 6N2       0.042700
     37 H16         -8.1260     1.1450    -0.5000 h1         1 6N2       0.052200
     38 H17         -7.1760     0.1240    -1.5920 h1         1 6N2       0.052200
     39 H18         -6.6180    -2.2740     1.0410 h1         1 6N2       0.052200
     40 H19         -6.2660    -1.9390    -0.6620 h1         1 6N2       0.052200
     41 H20         -4.2990    -1.4960     0.6690 h1         1 6N2       0.042700
     42 H21         -5.1810    -0.4350     1.7710 h1         1 6N2       0.042700
     43 N4          -1.2180     1.0370     0.0730 nu         1 6N2      -0.897400
@<TRIPOS>BOND
     1     1     7 1   
     2     1    15 1   
     3     1    16 1   
     4     2    10 ar  
     5     2    13 ar  
     6     2    17 1   
     7     3     4 1   
     8     3     5 1   
     9     3    18 1   
    10     4    12 ar  
    11     4    13 ar  
    12     5    14 2   
    13     5    43 1   
    14     6    20 1   
    15     6    21 1   
    16     6    26 1   
    17     6    43 1   
    18     7     8 2   
    19     7     9 1   
    20     8    22 1   
    21     9    10 1   
    22     9    23 1   
    23    10    11 ar  
    24    11    12 ar  
    25    11    24 1   
    26    12    14 1   
    27    13    25 1   
    28    19    43 1   
    29    26    27 1   
    30    26    33 1   
    31    26    34 1   
    32    27    28 1   
    33    27    32 1   
    34    28    29 1   
    35    28    35 1   
    36    28    36 1   
    37    29    30 1   
    38    29    37 1   
    39    29    38 1   
    40    30    31 1   
    41    31    32 1   
    42    31    39 1   
    43    31    40 1   
    44    32    41 1   
    45    32    42 1   
@<TRIPOS>SUBSTRUCTURE
     1 6N2         1 TEMP              0 ****  ****    0 ROOT
