@<TRIPOS>MOLECULE
6N3
   71    76     1     0     0
SMALL
No Charge or Current Charge


@<TRIPOS>ATOM
      1 C1          15.7450    18.1140   185.4240 c3         1 6N3      -0.055700
      2 C6          11.2240    22.8580   186.0480 ca         1 6N3       0.695900
      3 C7          11.3060    24.2450   185.9090 ca         1 6N3      -0.293000
      4 C9          13.5690    23.9660   185.1210 ca         1 6N3      -0.321600
      5 C5          13.3930    22.5790   185.3050 ca         1 6N3       0.670300
      6 C4          14.3310    20.3150   185.4260 c3         1 6N3       0.179600
      7 C3          15.6260    19.5990   184.9870 c3         1 6N3      -0.083400
      8 C12         17.7300    23.3550   182.5370 c6         1 6N3      -0.072200
      9 C2          14.6400    17.2220   184.8120 c3         1 6N3      -0.090600
     10 O4           7.3270    19.2640   189.7140 o          1 6N3      -0.729000
     11 O3           6.3430    21.1730   189.9000 o          1 6N3      -0.729000
     12 C25          8.2920    21.0890   188.5840 cx         1 6N3      -0.180700
     13 C22          8.5540    20.5100   187.2000 cx         1 6N3      -0.149200
     14 C21          9.9780    20.7280   186.6730 c5         1 6N3       0.249800
     15 C23          7.8680    21.8380   187.3280 cx         1 6N3      -0.149200
     16 C24          8.8290    22.9490   186.8880 c5         1 6N3       0.249800
     17 N2          10.0670    22.2100   186.5100 nh         1 6N3      -0.765300
     18 N           12.2430    22.0480   185.7540 nb         1 6N3      -0.854000
     19 C8          12.4920    24.8130   185.4420 ca         1 6N3       0.041000
     20 O           14.4200    21.7020   185.0310 os         1 6N3      -0.512300
     21 C           15.8230    17.9470   186.9600 c3         1 6N3      -0.090600
     22 O1          14.9900    25.8120   184.6620 o          1 6N3      -0.654100
     23 N1          15.8270    23.7930   184.1240 ns         1 6N3      -0.503900
     24 C11         17.1580    24.2440   183.6860 c6         1 6N3       0.121700
     25 C16         18.1740    24.2400   184.8720 c6         1 6N3      -0.072200
     26 C15         18.4130    22.7850   185.3790 c6         1 6N3      -0.071900
     27 C17         19.5290    24.8390   184.3890 c6         1 6N3      -0.076400
     28 C18         20.1080    23.9760   183.2280 c6         1 6N3       0.172000
     29 O2          21.3460    24.5290   182.7800 oh         1 6N3      -0.665000
     30 C20         19.0840    23.9550   182.0520 c6         1 6N3      -0.076400
     31 C19         20.3310    22.5200   183.7370 c6         1 6N3      -0.094400
     32 C14         18.9810    21.9130   184.2210 c6         1 6N3      -0.057700
     33 C13         17.9740    21.9010   183.0360 c6         1 6N3      -0.071900
     34 H1          16.6990    17.7510   185.0220 hc         1 6N3       0.038700
     35 H2          10.4670    24.8840   186.1560 ha         1 6N3       0.129000
     36 H3          14.2150    20.2370   186.5150 h1         1 6N3       0.057700
     37 H4          13.4680    19.8290   184.9500 h1         1 6N3       0.057700
     38 H5          15.6950    19.6450   183.8940 hc         1 6N3       0.045200
     39 H6          16.4870    20.1500   185.3840 hc         1 6N3       0.045200
     40 H7          17.0200    23.3420   181.6980 hc         1 6N3       0.066700
     41 H8          14.8320    16.1650   185.0350 hc         1 6N3       0.035533
     42 H9          13.6530    17.4780   185.2140 hc         1 6N3       0.035533
     43 H10         14.6100    17.3350   183.7210 hc         1 6N3       0.035533
     44 H12          9.1450    21.4760   189.1340 hc         1 6N3       0.068700
     45 H13          7.9820    19.6410   186.8850 hc         1 6N3       0.113200
     46 H14         10.1300    20.2190   185.7110 h1         1 6N3       0.044200
     47 H15         10.7350    20.3510   187.3750 h1         1 6N3       0.044200
     48 H16          6.8060    21.9130   187.1040 hc         1 6N3       0.113200
     49 H17          9.0190    23.6680   187.6970 h1         1 6N3       0.044200
     50 H18          8.4300    23.5050   186.0280 h1         1 6N3       0.044200
     51 H19         12.5630    25.8940   185.3290 ha         1 6N3       0.134000
     52 H20         16.6170    18.5760   187.3790 hc         1 6N3       0.035533
     53 H21         14.8760    18.2210   187.4400 hc         1 6N3       0.035533
     54 H22         16.0450    16.9050   187.2220 hc         1 6N3       0.035533
     55 H23         15.6410    22.7970   184.1610 hn         1 6N3       0.332500
     56 H24         17.0610    25.2730   183.3070 h1         1 6N3       0.082700
     57 H25         17.7800    24.8550   185.6930 hc         1 6N3       0.066700
     58 H26         17.4790    22.3520   185.7620 hc         1 6N3       0.043450
     59 H27         19.1140    22.7900   186.2250 hc         1 6N3       0.043450
     60 H28         20.2390    24.8810   185.2270 hc         1 6N3       0.049700
     61 H29         19.3830    25.8770   184.0560 hc         1 6N3       0.049700
     62 H30         21.9720    24.4570   183.5310 ho         1 6N3       0.435000
     63 H31         19.4790    23.3630   181.2150 hc         1 6N3       0.049700
     64 H32         18.9280    24.9710   181.6650 hc         1 6N3       0.049700
     65 H33         20.7550    21.8970   182.9370 hc         1 6N3       0.041200
     66 H34         21.0610    22.5080   184.5590 hc         1 6N3       0.041200
     67 H35         19.1440    20.8870   184.5780 hc         1 6N3       0.047700
     68 H36         17.0260    21.4450   183.3420 hc         1 6N3       0.043450
     69 H37         18.3610    21.2790   182.2170 hc         1 6N3       0.043450
     70 C26          7.2260    20.4540   189.4560 c          1 6N3       0.725000
     71 C10         14.8380    24.5990   184.6250 c          1 6N3       0.638700
@<TRIPOS>BOND
     1     1     7 1   
     2     1     9 1   
     3     1    21 1   
     4     1    34 1   
     5     2     3 ar  
     6     2    17 1   
     7     2    18 ar  
     8     3    19 ar  
     9     3    35 1   
    10     4     5 ar  
    11     4    19 ar  
    12     4    71 1   
    13     5    18 ar  
    14     5    20 1   
    15     6     7 1   
    16     6    20 1   
    17     6    36 1   
    18     6    37 1   
    19     7    38 1   
    20     7    39 1   
    21     8    24 1   
    22     8    30 1   
    23     8    33 1   
    24     8    40 1   
    25     9    41 1   
    26     9    42 1   
    27     9    43 1   
    28    10    70 1   
    29    11    70 1   
    30    12    13 1   
    31    12    15 1   
    32    12    44 1   
    33    12    70 1   
    34    13    14 1   
    35    13    15 1   
    36    13    45 1   
    37    14    17 1   
    38    14    46 1   
    39    14    47 1   
    40    15    16 1   
    41    15    48 1   
    42    16    17 1   
    43    16    49 1   
    44    16    50 1   
    45    19    51 1   
    46    21    52 1   
    47    21    53 1   
    48    21    54 1   
    49    22    71 2   
    50    23    24 1   
    51    23    55 1   
    52    23    71 1   
    53    24    25 1   
    54    24    56 1   
    55    25    26 1   
    56    25    27 1   
    57    25    57 1   
    58    26    32 1   
    59    26    58 1   
    60    26    59 1   
    61    27    28 1   
    62    27    60 1   
    63    27    61 1   
    64    28    29 1   
    65    28    30 1   
    66    28    31 1   
    67    29    62 1   
    68    30    63 1   
    69    30    64 1   
    70    31    32 1   
    71    31    65 1   
    72    31    66 1   
    73    32    33 1   
    74    32    67 1   
    75    33    68 1   
    76    33    69 1   
@<TRIPOS>SUBSTRUCTURE
     1 6N3         1 TEMP              0 ****  ****    0 ROOT
