@<TRIPOS>MOLECULE
6N3
   71    76     1     0     0
SMALL
abcg2


@<TRIPOS>ATOM
      1 C1          15.6090    17.9930   185.4660 c3         1 6N3      -0.055700
      2 C6          11.2140    22.7240   185.9960 ca         1 6N3       0.695900
      3 C7          11.2830    24.1070   185.7120 ca         1 6N3      -0.293000
      4 C9          13.6010    23.8000   185.0430 ca         1 6N3      -0.321600
      5 C5          13.4130    22.4350   185.3520 ca         1 6N3       0.670300
      6 C4          14.2770    20.1880   185.4930 c3         1 6N3       0.179600
      7 C3          15.6040    19.5100   185.2130 c3         1 6N3      -0.083400
      8 C12         17.7580    23.3270   182.6320 c6         1 6N3      -0.072200
      9 C2          14.6650    17.2400   184.5240 c3         1 6N3      -0.090600
     10 O4           6.4470    20.2350   189.3000 o          1 6N3      -0.729000
     11 O3           7.8070    21.0030   190.9120 o          1 6N3      -0.729000
     12 C25          8.4720    21.3090   188.6680 cx         1 6N3      -0.180700
     13 C22          8.6510    20.5340   187.3830 cx         1 6N3      -0.149200
     14 C21          9.9760    20.6940   186.6760 c5         1 6N3       0.249800
     15 C23          7.9440    21.8520   187.3590 cx         1 6N3      -0.149200
     16 C24          8.8250    22.8480   186.6430 c5         1 6N3       0.249800
     17 N2          10.0950    22.1410   186.4720 nh         1 6N3      -0.765300
     18 N           12.2830    21.9250   185.8000 nb         1 6N3      -0.854000
     19 C8          12.4760    24.6100   185.2490 ca         1 6N3       0.041000
     20 O           14.4530    21.5890   185.1850 os         1 6N3      -0.512300
     21 C           15.3280    17.6390   186.9280 c3         1 6N3      -0.090600
     22 O1          14.8830    25.6890   184.4070 o          1 6N3      -0.654100
     23 N1          15.8850    23.6650   184.2150 ns         1 6N3      -0.503900
     24 C11         17.1660    24.1820   183.7670 c6         1 6N3       0.121700
     25 C16         18.1920    24.2740   184.9160 c6         1 6N3      -0.072200
     26 C15         18.5520    22.8710   185.4240 c6         1 6N3      -0.071900
     27 C17         19.4540    24.9670   184.3810 c6         1 6N3      -0.076400
     28 C18         20.0520    24.1460   183.2330 c6         1 6N3       0.172000
     29 O2          21.2000    24.8060   182.6770 oh         1 6N3      -0.665000
     30 C20         19.0230    24.0250   182.1090 c6         1 6N3      -0.076400
     31 C19         20.4140    22.7480   183.7460 c6         1 6N3      -0.094400
     32 C14         19.1540    22.0460   184.2770 c6         1 6N3      -0.057700
     33 C13         18.1280    21.9270   183.1410 c6         1 6N3      -0.071900
     34 H1          16.6280    17.6600   185.2400 hc         1 6N3       0.038700
     35 H2          10.4290    24.7510   185.8500 ha         1 6N3       0.129000
     36 H3          13.9800    20.0950   186.5360 h1         1 6N3       0.057700
     37 H4          13.4730    19.7940   184.8720 h1         1 6N3       0.057700
     38 H5          15.8750    19.6940   184.1700 hc         1 6N3       0.045200
     39 H6          16.3730    19.9790   185.8320 hc         1 6N3       0.045200
     40 H7          17.0230    23.2530   181.8270 hc         1 6N3       0.066700
     41 H8          14.7910    16.1610   184.6370 hc         1 6N3       0.035533
     42 H9          13.6190    17.4730   184.7350 hc         1 6N3       0.035533
     43 H10         14.8630    17.4970   183.4800 hc         1 6N3       0.035533
     44 H12          9.3560    21.7930   189.0680 hc         1 6N3       0.068700
     45 H13          8.1070    19.6080   187.2710 hc         1 6N3       0.113200
     46 H14          9.9730    20.1640   185.7170 h1         1 6N3       0.044200
     47 H15         10.8250    20.3270   187.2540 h1         1 6N3       0.044200
     48 H16          6.8740    21.9120   187.2280 hc         1 6N3       0.113200
     49 H17          8.9760    23.7650   187.2160 h1         1 6N3       0.044200
     50 H18          8.3930    23.1220   185.6730 h1         1 6N3       0.044200
     51 H19         12.5690    25.6640   185.0260 ha         1 6N3       0.134000
     52 H20         15.9920    18.1860   187.6020 hc         1 6N3       0.035533
     53 H21         14.2980    17.8730   187.2070 hc         1 6N3       0.035533
     54 H22         15.4790    16.5710   187.0990 hc         1 6N3       0.035533
     55 H23         15.7830    22.6790   184.3950 hn         1 6N3       0.332500
     56 H24         16.9760    25.1860   183.3910 h1         1 6N3       0.082700
     57 H25         17.7590    24.8690   185.7240 hc         1 6N3       0.066700
     58 H26         17.6660    22.3700   185.8230 hc         1 6N3       0.043450
     59 H27         19.2690    22.9530   186.2460 hc         1 6N3       0.043450
     60 H28         20.1940    25.0690   185.1810 hc         1 6N3       0.049700
     61 H29         19.2160    25.9710   184.0180 hc         1 6N3       0.049700
     62 H30         21.8610    24.8910   183.3770 ho         1 6N3       0.435000
     63 H31         19.4540    23.4510   181.2860 hc         1 6N3       0.049700
     64 H32         18.7820    25.0220   181.7310 hc         1 6N3       0.049700
     65 H33         20.8570    22.1720   182.9290 hc         1 6N3       0.041200
     66 H34         21.1650    22.8360   184.5380 hc         1 6N3       0.041200
     67 H35         19.4180    21.0490   184.6400 hc         1 6N3       0.047700
     68 H36         17.2420    21.3920   183.4890 hc         1 6N3       0.043450
     69 H37         18.5440    21.3390   182.3180 hc         1 6N3       0.043450
     70 C26          7.4930    20.8060   189.7070 c          1 6N3       0.725000
     71 C10         14.8380    24.4560   184.5370 c          1 6N3       0.638700
@<TRIPOS>BOND
     1     1     7 1   
     2     1     9 1   
     3     1    21 1   
     4     1    34 1   
     5     2     3 ar  
     6     2    17 1   
     7     2    18 ar  
     8     3    19 ar  
     9     3    35 1   
    10     4     5 ar  
    11     4    19 ar  
    12     4    71 1   
    13     5    18 ar  
    14     5    20 1   
    15     6     7 1   
    16     6    20 1   
    17     6    36 1   
    18     6    37 1   
    19     7    38 1   
    20     7    39 1   
    21     8    24 1   
    22     8    30 1   
    23     8    33 1   
    24     8    40 1   
    25     9    41 1   
    26     9    42 1   
    27     9    43 1   
    28    10    70 1   
    29    11    70 1   
    30    12    13 1   
    31    12    15 1   
    32    12    44 1   
    33    12    70 1   
    34    13    14 1   
    35    13    15 1   
    36    13    45 1   
    37    14    17 1   
    38    14    46 1   
    39    14    47 1   
    40    15    16 1   
    41    15    48 1   
    42    16    17 1   
    43    16    49 1   
    44    16    50 1   
    45    19    51 1   
    46    21    52 1   
    47    21    53 1   
    48    21    54 1   
    49    22    71 2   
    50    23    24 1   
    51    23    55 1   
    52    23    71 1   
    53    24    25 1   
    54    24    56 1   
    55    25    26 1   
    56    25    27 1   
    57    25    57 1   
    58    26    32 1   
    59    26    58 1   
    60    26    59 1   
    61    27    28 1   
    62    27    60 1   
    63    27    61 1   
    64    28    29 1   
    65    28    30 1   
    66    28    31 1   
    67    29    62 1   
    68    30    63 1   
    69    30    64 1   
    70    31    32 1   
    71    31    65 1   
    72    31    66 1   
    73    32    33 1   
    74    32    67 1   
    75    33    68 1   
    76    33    69 1   
@<TRIPOS>SUBSTRUCTURE
     1 6N3         1 TEMP              0 ****  ****    0 ROOT
