@<TRIPOS>MOLECULE
6N4
   23    24     1     0     0
SMALL
No Charge or Current Charge


@<TRIPOS>ATOM
      1 C1          -3.9390     1.3890     0.0200 ca         1 6N4      -0.134000
      2 C2          -4.3530     0.0360     0.0250 ca         1 6N4      -0.093000
      3 C3          -3.3940    -0.9990     0.0230 ca         1 6N4      -0.116000
      4 C4          -2.0410    -0.6360     0.0140 ca         1 6N4      -0.072200
      5 C5          -1.6260     0.6730     0.0080 ca         1 6N4       0.075400
      6 C6          -2.5650     1.7160     0.0110 ca         1 6N4      -0.050000
      7 N7          -0.2430     0.7740     0.0000 nc         1 6N4      -0.584100
      8 C8           0.1030    -0.5210     0.0010 cd         1 6N4       0.438700
      9 N9          -0.9390    -1.4450     0.0100 na         1 6N4      -0.306600
     10 S10          1.7660    -1.1080    -0.0070 ss         1 6N4      -0.262200
     11 C11          2.7620     0.4520    -0.0160 c3         1 6N4       0.060600
     12 C12          4.2700     0.1390    -0.0240 c3         1 6N4       0.167600
     13 O13          5.0260     1.3580    -0.0320 oh         1 6N4      -0.652000
     14 H1          -4.6830     2.1820     0.0220 ha         1 6N4       0.114000
     15 H2          -5.4130    -0.2080     0.0320 ha         1 6N4       0.113000
     16 H6          -2.2390     2.7530     0.0060 ha         1 6N4       0.129000
     17 H3          -3.6980    -2.0430     0.0270 ha         1 6N4       0.117000
     18 H9          -0.8740    -2.4540     0.0120 hn         1 6N4       0.364000
     19 H111         2.5020     1.0380    -0.9070 h1         1 6N4       0.094200
     20 H112         2.5130     1.0420     0.8740 h1         1 6N4       0.094200
     21 H121         4.5180    -0.4580     0.8640 h1         1 6N4       0.027700
     22 H122         4.5070    -0.4620    -0.9120 h1         1 6N4       0.027700
     23 H13          5.9770     1.1060    -0.0370 ho         1 6N4       0.446000
@<TRIPOS>BOND
     1     1     2 ar  
     2     1     6 ar  
     3     1    14 1   
     4     2     3 ar  
     5     2    15 1   
     6     3     4 ar  
     7     3    17 1   
     8     4     5 ar  
     9     4     9 1   
    10     5     6 ar  
    11     5     7 1   
    12     6    16 1   
    13     7     8 2   
    14     8     9 1   
    15     8    10 1   
    16     9    18 1   
    17    10    11 1   
    18    11    12 1   
    19    11    19 1   
    20    11    20 1   
    21    12    13 1   
    22    12    21 1   
    23    12    22 1   
    24    13    23 1   
@<TRIPOS>SUBSTRUCTURE
     1 6N4         1 TEMP              0 ****  ****    0 ROOT
