@<TRIPOS>MOLECULE
6N4
   23    24     1     0     0
SMALL
abcg2


@<TRIPOS>ATOM
      1 C1          -3.8560     1.3830     0.0160 ca         1 6N4      -0.134000
      2 C2          -4.2780     0.0490     0.0620 ca         1 6N4      -0.093000
      3 C3          -3.3700    -0.9980     0.0610 ca         1 6N4      -0.116000
      4 C4          -2.0270    -0.6550     0.0130 ca         1 6N4      -0.072200
      5 C5          -1.5840     0.6760    -0.0300 ca         1 6N4       0.075400
      6 C6          -2.5120     1.7140    -0.0300 ca         1 6N4      -0.050000
      7 N7          -0.2080     0.7190    -0.0700 nc         1 6N4      -0.584100
      8 C8           0.1650    -0.5270    -0.0510 cd         1 6N4       0.438700
      9 N9          -0.8750    -1.4020    -0.0010 na         1 6N4      -0.306600
     10 S10          1.7980    -1.1230    -0.0870 ss         1 6N4      -0.262200
     11 C11          2.7060     0.4470    -0.0120 c3         1 6N4       0.060600
     12 C12          4.1900     0.1280    -0.0330 c3         1 6N4       0.167600
     13 O13          4.8740     1.3530     0.0380 oh         1 6N4      -0.652000
     14 H1          -4.5980     2.1700     0.0170 ha         1 6N4       0.114000
     15 H2          -5.3370    -0.1690     0.1000 ha         1 6N4       0.113000
     16 H6          -2.1890     2.7460    -0.0670 ha         1 6N4       0.129000
     17 H3          -3.7000    -2.0270     0.1000 ha         1 6N4       0.117000
     18 H9          -0.8130    -2.4050     0.0290 hn         1 6N4       0.364000
     19 H111         2.4290     1.0610    -0.8680 h1         1 6N4       0.094200
     20 H112         2.4330     0.9700     0.9030 h1         1 6N4       0.094200
     21 H121         4.4380    -0.5260     0.8130 h1         1 6N4       0.027700
     22 H122         4.4360    -0.4240    -0.9490 h1         1 6N4       0.027700
     23 H13          5.8140     1.1640     0.0600 ho         1 6N4       0.446000
@<TRIPOS>BOND
     1     1     2 ar  
     2     1     6 ar  
     3     1    14 1   
     4     2     3 ar  
     5     2    15 1   
     6     3     4 ar  
     7     3    17 1   
     8     4     5 ar  
     9     4     9 1   
    10     5     6 ar  
    11     5     7 1   
    12     6    16 1   
    13     7     8 2   
    14     8     9 1   
    15     8    10 1   
    16     9    18 1   
    17    10    11 1   
    18    11    12 1   
    19    11    19 1   
    20    11    20 1   
    21    12    13 1   
    22    12    21 1   
    23    12    22 1   
    24    13    23 1   
@<TRIPOS>SUBSTRUCTURE
     1 6N4         1 TEMP              0 ****  ****    0 ROOT
