@<TRIPOS>MOLECULE
6N5
   88    91     1     0     0
SMALL
No Charge or Current Charge


@<TRIPOS>ATOM
      1 C4           2.4830    -0.8540     3.2060 ca         1 6N5      -0.105000
      2 C5           3.5470    -1.1460     2.3360 ca         1 6N5      -0.102000
      3 C6           4.6130    -0.2360     2.1830 ca         1 6N5      -0.087300
      4 C7           5.7400    -0.5220     1.1920 c3         1 6N5      -0.049100
      5 C8           5.5590     0.2210    -0.1610 c3         1 6N5       0.066700
      6 C10          8.0990     0.0590    -0.8930 c3         1 6N5      -0.052700
      7 C24          1.7260     0.3560    -0.6390 c3         1 6N5       0.022700
      8 C58         -6.3530     0.5040     0.4620 cc         1 6N5      -0.022300
      9 C57         -7.0600    -0.6790     0.4270 cd         1 6N5      -0.113800
     10 C56         -8.4430    -0.9500     0.0550 cf         1 6N5      -0.122200
     11 C55         -8.8920    -2.2290     0.0840 c2         1 6N5      -0.232200
     12 C54         -8.0060    -3.4150     0.4950 c6         1 6N5      -0.029000
     13 C53         -6.5800    -3.0140     0.8890 c2         1 6N5      -0.111200
     14 C52         -6.1820    -1.7160     0.8280 cd         1 6N5      -0.089000
     15 C51         -4.9070    -1.1560     1.1120 cd         1 6N5      -0.100000
     16 C50         -5.0070     0.2040     0.8880 cc         1 6N5      -0.139600
     17 O61         -3.9960     2.3920     0.8690 o          1 6N5      -0.605100
     18 N28         -2.6950     0.6100     1.3890 ns         1 6N5      -0.501900
     19 C27         -1.3960     1.3110     1.4420 c3         1 6N5       0.042700
     20 C38         -1.0800     1.7670     2.8820 c3         1 6N5      -0.105100
     21 O39         -0.3770    -0.8460     0.9180 o          1 6N5      -0.621100
     22 N25          0.7620     1.0210     0.2670 ns         1 6N5      -0.471900
     23 C40          1.2730     0.5030    -2.1180 c3         1 6N5      -0.037100
     24 C41         -0.2280     0.2760    -2.3090 ca         1 6N5      -0.134300
     25 C48         -1.1040     1.3770    -2.3870 ca         1 6N5      -0.064000
     26 C47         -2.4910     1.1730    -2.4760 ca         1 6N5      -0.170000
     27 C44         -3.0200    -0.1260    -2.4920 ca         1 6N5       0.145100
     28 O45         -4.3910    -0.2610    -2.5620 os         1 6N5      -0.335100
     29 C46         -5.0390    -1.5450    -2.5330 c3         1 6N5       0.147900
     30 C43         -2.1450    -1.2330    -2.4310 ca         1 6N5      -0.170000
     31 C42         -0.7550    -1.0290    -2.3390 ca         1 6N5      -0.064000
     32 N22          4.1770     0.0340    -0.6470 ns         1 6N5      -0.506900
     33 C3           2.4790     0.3480     3.9340 ca         1 6N5      -0.110000
     34 C2           3.5410     1.2560     3.7910 ca         1 6N5      -0.105000
     35 C1           4.6040     0.9660     2.9180 ca         1 6N5      -0.102000
     36 C9           6.5980    -0.1880    -1.2530 c3         1 6N5       0.171300
     37 O21          6.2730     0.4880    -2.4760 oh         1 6N5      -0.654000
     38 C11          8.4210     1.5440    -0.5650 c3         1 6N5      -0.084100
     39 C12          9.0300    -0.5050    -2.0010 c3         1 6N5       0.166600
     40 O13         10.3910    -0.5500    -1.5470 oh         1 6N5      -0.666000
     41 H1           1.6590    -1.5560     3.3120 ha         1 6N5       0.115500
     42 H2           3.5350    -2.0740     1.7690 ha         1 6N5       0.109500
     43 H3           6.6980    -0.2360     1.6420 hc         1 6N5       0.055200
     44 H4           5.8030    -1.6010     1.0010 hc         1 6N5       0.055200
     45 H5           5.6990     1.2920     0.0400 h1         1 6N5       0.102700
     46 H6           8.3130    -0.5260     0.0090 hc         1 6N5       0.058700
     47 H7           1.7630    -0.7120    -0.3860 h1         1 6N5       0.086700
     48 H8          -6.7610     2.5630     0.9610 hc         1 6N5       0.050033
     49 H9          -6.2690     2.3020    -0.7260 hc         1 6N5       0.050033
     50 H10         -7.9000     1.8720    -0.2000 hc         1 6N5       0.050033
     51 H12         -9.9240    -2.4520    -0.1930 ha         1 6N5       0.179000
     52 H13         -8.4760    -3.9440     1.3360 hc         1 6N5       0.068200
     53 H14         -7.9600    -4.1370    -0.3320 hc         1 6N5       0.068200
     54 H15         -5.9000    -3.8100     1.1940 ha         1 6N5       0.181000
     55 H16         -4.0320    -1.7110     1.4360 ha         1 6N5       0.131000
     56 H17         -2.6860    -0.3990     1.4750 hn         1 6N5       0.333500
     57 H18         -1.4410     2.1920     0.7890 h1         1 6N5       0.084700
     58 H19         -1.0190     0.9050     3.5580 hc         1 6N5       0.050700
     59 H20         -0.1210     2.2980     2.9170 hc         1 6N5       0.050700
     60 H21         -1.8590     2.4430     3.2530 hc         1 6N5       0.050700
     61 H22          0.7770     2.0330     0.3180 hn         1 6N5       0.334500
     62 H23          1.5380     1.5080    -2.4700 hc         1 6N5       0.059200
     63 H24          1.8470    -0.1940    -2.7420 hc         1 6N5       0.059200
     64 H25         -0.7130     2.3920    -2.3550 ha         1 6N5       0.111500
     65 H26         -3.1610     2.0270    -2.5200 ha         1 6N5       0.124500
     66 H27         -4.7490    -2.1480    -3.4020 h1         1 6N5       0.042033
     67 H28         -4.7750    -2.0950    -1.6210 h1         1 6N5       0.042033
     68 H29         -6.1290    -1.4210    -2.5500 h1         1 6N5       0.042033
     69 H30         -2.5220    -2.2510    -2.4410 ha         1 6N5       0.124500
     70 H31         -0.0900    -1.8870    -2.2680 ha         1 6N5       0.111500
     71 H32          3.9040    -0.8960    -0.9460 hn         1 6N5       0.305500
     72 H33          1.6540     0.5750     4.6060 ha         1 6N5       0.111000
     73 H34          3.5390     2.1880     4.3520 ha         1 6N5       0.115500
     74 H35          5.4150     1.6810     2.8030 ha         1 6N5       0.109500
     75 H36          6.4780    -1.2690    -1.4110 h1         1 6N5       0.020700
     76 H37          5.2950     0.5760    -2.4820 ho         1 6N5       0.449000
     77 H38          9.4800     1.6670    -0.3080 hc         1 6N5       0.041700
     78 H39          8.2040     2.1940    -1.4210 hc         1 6N5       0.041700
     79 H40          7.8390     1.8980     0.2940 hc         1 6N5       0.041700
     80 H41          8.6970    -1.5170    -2.2670 h1         1 6N5       0.026200
     81 H42          8.9480     0.1190    -2.9010 h1         1 6N5       0.026200
     82 H43         10.9280    -0.9030    -2.2910 ho         1 6N5       0.443000
     83 C23          3.1490     0.9290    -0.4170 c          1 6N5       0.595100
     84 C26         -0.2960     0.3770     0.8740 c          1 6N5       0.595100
     85 O49          3.3530     2.0770    -0.0440 o          1 6N5      -0.579100
     86 C60         -3.8950     1.1860     1.0420 c          1 6N5       0.626700
     87 H11         -9.0890    -0.1210    -0.2420 ha         1 6N5       0.185000
     88 C59         -6.8480     1.8840     0.1050 c3         1 6N5      -0.034800
@<TRIPOS>BOND
     1     1     2 ar  
     2     1    33 ar  
     3     1    41 1   
     4     2     3 ar  
     5     2    42 1   
     6     3     4 1   
     7     3    35 ar  
     8     4     5 1   
     9     4    43 1   
    10     4    44 1   
    11     5    32 1   
    12     5    36 1   
    13     5    45 1   
    14     6    36 1   
    15     6    38 1   
    16     6    39 1   
    17     6    46 1   
    18     7    22 1   
    19     7    23 1   
    20     7    47 1   
    21     7    83 1   
    22     8     9 2   
    23     8    16 1   
    24     8    88 1   
    25     9    10 1   
    26     9    14 1   
    27    10    11 2   
    28    10    87 1   
    29    11    12 1   
    30    11    51 1   
    31    12    13 1   
    32    12    52 1   
    33    12    53 1   
    34    13    14 2   
    35    13    54 1   
    36    14    15 1   
    37    15    16 2   
    38    15    55 1   
    39    16    86 1   
    40    17    86 2   
    41    18    19 1   
    42    18    56 1   
    43    18    86 1   
    44    19    20 1   
    45    19    57 1   
    46    19    84 1   
    47    20    58 1   
    48    20    59 1   
    49    20    60 1   
    50    21    84 2   
    51    22    61 1   
    52    22    84 1   
    53    23    24 1   
    54    23    62 1   
    55    23    63 1   
    56    24    25 ar  
    57    24    31 ar  
    58    25    26 ar  
    59    25    64 1   
    60    26    27 ar  
    61    26    65 1   
    62    27    28 1   
    63    27    30 ar  
    64    28    29 1   
    65    29    66 1   
    66    29    67 1   
    67    29    68 1   
    68    30    31 ar  
    69    30    69 1   
    70    31    70 1   
    71    32    71 1   
    72    32    83 1   
    73    33    34 ar  
    74    33    72 1   
    75    34    35 ar  
    76    34    73 1   
    77    35    74 1   
    78    36    37 1   
    79    36    75 1   
    80    37    76 1   
    81    38    77 1   
    82    38    78 1   
    83    38    79 1   
    84    39    40 1   
    85    39    80 1   
    86    39    81 1   
    87    40    82 1   
    88    48    88 1   
    89    49    88 1   
    90    50    88 1   
    91    83    85 2   
@<TRIPOS>SUBSTRUCTURE
     1 6N5         1 TEMP              0 ****  ****    0 ROOT
