@<TRIPOS>MOLECULE
6N5
   88    91     1     0     0
SMALL
bcc


@<TRIPOS>ATOM
      1 C4           2.6190    -0.2740     3.4130 ca         1 6N5      -0.123000
      2 C5           3.5370    -0.7050     2.4650 ca         1 6N5      -0.120000
      3 C6           4.7290    -0.0150     2.2590 ca         1 6N5      -0.087300
      4 C7           5.6890    -0.4260     1.1790 c3         1 6N5      -0.049100
      5 C8           5.3900     0.2950    -0.1440 c3         1 6N5       0.066700
      6 C10          7.7980     0.0930    -1.0090 c3         1 6N5      -0.052700
      7 C24          1.6250     0.3530    -0.6490 c3         1 6N5       0.022700
      8 C58         -6.0280     0.4840     0.1590 cc         1 6N5      -0.022300
      9 C57         -6.9120    -0.5490     0.1490 cd         1 6N5      -0.113800
     10 C56         -8.2040    -0.7180    -0.4630 cf         1 6N5      -0.072200
     11 C55         -8.8700    -1.8740    -0.3200 c2         1 6N5      -0.182200
     12 C54         -8.3340    -3.0290     0.4580 c6         1 6N5      -0.029000
     13 C53         -6.9940    -2.8210     1.0640 c2         1 6N5      -0.061200
     14 C52         -6.3410    -1.6590     0.9100 cd         1 6N5      -0.089000
     15 C51         -5.0420    -1.2280     1.3730 cd         1 6N5      -0.118000
     16 C50         -4.8570     0.0420     0.9210 cc         1 6N5      -0.139600
     17 O61         -3.7840     2.1100     1.3520 o          1 6N5      -0.605100
     18 N28         -2.5210     0.2350     1.3610 ns         1 6N5      -0.568900
     19 C27         -1.2750     0.8740     1.7250 c3         1 6N5       0.042700
     20 C38         -1.0290     0.8360     3.2310 c3         1 6N5      -0.105100
     21 O39         -0.1090    -1.0930     1.0440 o          1 6N5      -0.621100
     22 N25          0.6770     0.8930     0.2880 ns         1 6N5      -0.538900
     23 C40          1.1970     0.6660    -2.0990 c3         1 6N5      -0.037100
     24 C41         -0.2560     0.3410    -2.3030 ca         1 6N5      -0.134300
     25 C48         -1.2100     1.3540    -2.3840 ca         1 6N5      -0.082000
     26 C47         -2.5610     1.0690    -2.4690 ca         1 6N5      -0.188000
     27 C44         -3.0010    -0.2540    -2.4680 ca         1 6N5       0.145100
     28 O45         -4.3310    -0.4430    -2.5450 os         1 6N5      -0.311900
     29 C46         -4.8370    -1.7470    -2.3580 c3         1 6N5       0.124700
     30 C43         -2.0600    -1.2800    -2.3990 ca         1 6N5      -0.188000
     31 C42         -0.7080    -0.9720    -2.3200 ca         1 6N5      -0.082000
     32 N22          4.0170     0.0450    -0.5380 ns         1 6N5      -0.573900
     33 C3           2.8860     0.8520     4.1800 ca         1 6N5      -0.128000
     34 C2           4.0760     1.5430     3.9900 ca         1 6N5      -0.123000
     35 C1           4.9860     1.1130     3.0350 ca         1 6N5      -0.120000
     36 C9           6.3130    -0.1340    -1.2940 c3         1 6N5       0.148100
     37 O21          5.9780     0.5660    -2.4710 oh         1 6N5      -0.591800
     38 C11          8.1360     1.5470    -0.6900 c3         1 6N5      -0.084100
     39 C12          8.6320    -0.4390    -2.1700 c3         1 6N5       0.143400
     40 O13          9.9890    -0.4570    -1.7820 oh         1 6N5      -0.603800
     41 H1           1.6930    -0.8180     3.5470 ha         1 6N5       0.133500
     42 H2           3.3190    -1.5920     1.8810 ha         1 6N5       0.127500
     43 H3           6.7100    -0.1990     1.4940 hc         1 6N5       0.055200
     44 H4           5.6440    -1.5080     1.0180 hc         1 6N5       0.055200
     45 H5           5.4840     1.3710     0.0080 h1         1 6N5       0.102700
     46 H6           8.0480    -0.5250    -0.1400 hc         1 6N5       0.058700
     47 H7           1.6290    -0.7290    -0.5130 h1         1 6N5       0.086700
     48 H8          -6.1740     2.6300     0.1870 hc         1 6N5       0.050033
     49 H9          -5.3630     1.9770    -1.2220 hc         1 6N5       0.050033
     50 H10         -7.1110     1.8440    -1.0810 hc         1 6N5       0.050033
     51 H12         -9.8420    -2.0040    -0.7790 ha         1 6N5       0.129000
     52 H13         -9.0410    -3.3100     1.2500 hc         1 6N5       0.068200
     53 H14         -8.2990    -3.9250    -0.1770 hc         1 6N5       0.068200
     54 H15         -6.5600    -3.6400     1.6280 ha         1 6N5       0.131000
     55 H16         -4.3790    -1.8110     1.9960 ha         1 6N5       0.149000
     56 H17         -2.4950    -0.7570     1.1860 hn         1 6N5       0.333500
     57 H18         -1.3210     1.9120     1.3940 h1         1 6N5       0.084700
     58 H19         -1.0120    -0.1910     3.5950 hc         1 6N5       0.050700
     59 H20         -0.0770     1.3060     3.4800 hc         1 6N5       0.050700
     60 H21         -1.8190     1.3750     3.7520 hc         1 6N5       0.050700
     61 H22          0.5180     1.8890     0.2660 hn         1 6N5       0.334500
     62 H23          1.3730     1.7240    -2.3090 hc         1 6N5       0.059200
     63 H24          1.8340     0.0950    -2.7780 hc         1 6N5       0.059200
     64 H25         -0.8930     2.3910    -2.3720 ha         1 6N5       0.129500
     65 H26         -3.2860     1.8720    -2.5220 ha         1 6N5       0.142500
     66 H27         -4.5190    -2.4280    -3.1520 h1         1 6N5       0.042033
     67 H28         -4.5350    -2.1620    -1.3920 h1         1 6N5       0.042033
     68 H29         -5.9210    -1.6680    -2.3760 h1         1 6N5       0.042033
     69 H30         -2.3600    -2.3200    -2.4050 ha         1 6N5       0.142500
     70 H31          0.0060    -1.7850    -2.2610 ha         1 6N5       0.129500
     71 H32          3.7650    -0.9220    -0.6830 hn         1 6N5       0.305500
     72 H33          2.1730     1.1890     4.9220 ha         1 6N5       0.129000
     73 H34          4.2950     2.4210     4.5850 ha         1 6N5       0.133500
     74 H35          5.9100     1.6630     2.8920 ha         1 6N5       0.127500
     75 H36          6.1680    -1.2180    -1.4420 h1         1 6N5       0.020700
     76 H37          5.0360     0.4440    -2.6300 ho         1 6N5       0.410000
     77 H38          9.1970     1.6560    -0.4690 hc         1 6N5       0.041700
     78 H39          7.9030     2.2040    -1.5300 hc         1 6N5       0.041700
     79 H40          7.5900     1.9150     0.1790 hc         1 6N5       0.041700
     80 H41          8.2830    -1.4490    -2.4290 h1         1 6N5       0.026200
     81 H42          8.4820     0.1910    -3.0550 h1         1 6N5       0.026200
     82 H43         10.5140    -0.7000    -2.5500 ho         1 6N5       0.404000
     83 C23          3.0100     0.9240    -0.3680 c          1 6N5       0.662100
     84 C26         -0.1740     0.1260     0.9830 c          1 6N5       0.662100
     85 O49          3.1600     2.0950    -0.0700 o          1 6N5      -0.579100
     86 C60         -3.6840     0.8950     1.2220 c          1 6N5       0.693700
     87 H11         -8.6370     0.0910    -1.0390 ha         1 6N5       0.135000
     88 C59         -6.1790     1.8010    -0.5190 c3         1 6N5      -0.034800
@<TRIPOS>BOND
     1     1     2 ar  
     2     1    33 ar  
     3     1    41 1   
     4     2     3 ar  
     5     2    42 1   
     6     3     4 1   
     7     3    35 ar  
     8     4     5 1   
     9     4    43 1   
    10     4    44 1   
    11     5    32 1   
    12     5    36 1   
    13     5    45 1   
    14     6    36 1   
    15     6    38 1   
    16     6    39 1   
    17     6    46 1   
    18     7    22 1   
    19     7    23 1   
    20     7    47 1   
    21     7    83 1   
    22     8     9 2   
    23     8    16 1   
    24     8    88 1   
    25     9    10 1   
    26     9    14 1   
    27    10    11 2   
    28    10    87 1   
    29    11    12 1   
    30    11    51 1   
    31    12    13 1   
    32    12    52 1   
    33    12    53 1   
    34    13    14 2   
    35    13    54 1   
    36    14    15 1   
    37    15    16 2   
    38    15    55 1   
    39    16    86 1   
    40    17    86 2   
    41    18    19 1   
    42    18    56 1   
    43    18    86 1   
    44    19    20 1   
    45    19    57 1   
    46    19    84 1   
    47    20    58 1   
    48    20    59 1   
    49    20    60 1   
    50    21    84 2   
    51    22    61 1   
    52    22    84 1   
    53    23    24 1   
    54    23    62 1   
    55    23    63 1   
    56    24    25 ar  
    57    24    31 ar  
    58    25    26 ar  
    59    25    64 1   
    60    26    27 ar  
    61    26    65 1   
    62    27    28 1   
    63    27    30 ar  
    64    28    29 1   
    65    29    66 1   
    66    29    67 1   
    67    29    68 1   
    68    30    31 ar  
    69    30    69 1   
    70    31    70 1   
    71    32    71 1   
    72    32    83 1   
    73    33    34 ar  
    74    33    72 1   
    75    34    35 ar  
    76    34    73 1   
    77    35    74 1   
    78    36    37 1   
    79    36    75 1   
    80    37    76 1   
    81    38    77 1   
    82    38    78 1   
    83    38    79 1   
    84    39    40 1   
    85    39    80 1   
    86    39    81 1   
    87    40    82 1   
    88    48    88 1   
    89    49    88 1   
    90    50    88 1   
    91    83    85 2   
@<TRIPOS>SUBSTRUCTURE
     1 6N5         1 TEMP              0 ****  ****    0 ROOT
