@<TRIPOS>MOLECULE
6N6
   16    17     1     0     0
SMALL
bcc


@<TRIPOS>ATOM
      1 C1           3.3100    -1.0860     0.0050 cc         1 6N6      -0.155000
      2 C2           1.9490    -1.4750     0.0180 cc         1 6N6      -0.096000
      3 C3           1.0960    -0.4050    -0.0260 cd         1 6N6      -0.127600
      4 S4           1.9690     1.0810    -0.0870 ss         1 6N6      -0.076800
      5 C5           3.4720     0.2660    -0.0470 cd         1 6N6      -0.103100
      6 C6          -0.3480    -0.4360    -0.0360 cd         1 6N6       0.490900
      7 N7          -1.0540    -1.5030    -0.1980 nc         1 6N6      -0.287000
      8 N8          -2.3830    -1.3010    -0.1640 nc         1 6N6      -0.409000
      9 C9          -2.7020    -0.0530     0.0260 cd         1 6N6       0.669300
     10 S10         -1.3220     0.9930     0.1910 ss         1 6N6      -0.337800
     11 N11         -3.9610     0.4050     0.1470 nv         1 6N6      -0.929500
     12 H1           4.1350    -1.7830     0.0390 ha         1 6N6       0.157000
     13 H2           1.6110    -2.5000     0.0660 ha         1 6N6       0.172000
     14 H5           4.3920     0.8290    -0.0650 h4         1 6N6       0.171000
     15 HN11        -4.6940    -0.2180    -0.1540 hn         1 6N6       0.431800
     16 HN1A        -4.1470     1.3810    -0.0080 hn         1 6N6       0.431800
@<TRIPOS>BOND
     1     1     2 1   
     2     1     5 2   
     3     1    12 1   
     4     2     3 2   
     5     2    13 1   
     6     3     4 1   
     7     3     6 1   
     8     4     5 1   
     9     5    14 1   
    10     6     7 2   
    11     6    10 1   
    12     7     8 1   
    13     8     9 2   
    14     9    10 1   
    15     9    11 1   
    16    11    15 1   
    17    11    16 1   
@<TRIPOS>SUBSTRUCTURE
     1 6N6         1 TEMP              0 ****  ****    0 ROOT
