@<TRIPOS>MOLECULE
6N6
   16    17     1     0     0
SMALL
No Charge or Current Charge


@<TRIPOS>ATOM
      1 C1           3.2610    -1.0960    -0.0500 cc         1 6N6      -0.137000
      2 C2           1.8830    -1.4260    -0.0420 cc         1 6N6      -0.078000
      3 C3           1.0770    -0.3140     0.0040 cd         1 6N6      -0.272500
      4 S4           2.0040     1.1930     0.0380 ss         1 6N6       0.213000
      5 C5           3.5100     0.2540    -0.0110 cd         1 6N6      -0.230000
      6 C6          -0.3580    -0.3860     0.0210 cd         1 6N6       0.490900
      7 N7          -1.0200    -1.5410    -0.0070 nc         1 6N6      -0.287000
      8 N8          -2.3920    -1.3320     0.0190 nc         1 6N6      -0.409000
      9 C9          -2.6570    -0.0450     0.0670 cd         1 6N6       0.669300
     10 S10         -1.3330     1.0620     0.0780 ss         1 6N6      -0.337800
     11 N11         -3.9360     0.3670     0.0940 nv         1 6N6      -1.039900
     12 H1           4.0370    -1.8560    -0.0840 ha         1 6N6       0.139000
     13 H2           1.5330    -2.4560    -0.0700 ha         1 6N6       0.154000
     14 H5           4.4680     0.7610    -0.0080 h4         1 6N6       0.153000
     15 HN11        -4.6330    -0.3180    -0.1780 hn         1 6N6       0.487000
     16 HN1A        -4.1220     1.3300    -0.1630 hn         1 6N6       0.487000
@<TRIPOS>BOND
     1     1     2 1   
     2     1     5 2   
     3     1    12 1   
     4     2     3 2   
     5     2    13 1   
     6     3     4 1   
     7     3     6 1   
     8     4     5 1   
     9     5    14 1   
    10     6     7 2   
    11     6    10 1   
    12     7     8 1   
    13     8     9 2   
    14     9    10 1   
    15     9    11 1   
    16    11    15 1   
    17    11    16 1   
@<TRIPOS>SUBSTRUCTURE
     1 6N6         1 TEMP              0 ****  ****    0 ROOT
