@<TRIPOS>MOLECULE
6N8
   43    45     1     0     0
SMALL
bcc


@<TRIPOS>ATOM
      1 C1          -2.3330    -3.8050     0.5980 ca         1 6N8      -0.125500
      2 C21         -4.9710     2.7440     0.5070 ca         1 6N8      -0.125500
      3 C2          -2.2710    -2.7780     1.5330 ca         1 6N8      -0.125500
      4 C6          -2.1820    -3.5110    -0.7490 ca         1 6N8      -0.125500
      5 C20         -5.0700     1.8800    -0.5780 ca         1 6N8      -0.125500
      6 C22         -3.7800     2.8160     1.2130 ca         1 6N8      -0.125500
      7 C3          -2.0600    -1.4710     1.1220 ca         1 6N8      -0.122000
      8 C5          -1.9680    -2.1990    -1.1570 ca         1 6N8      -0.122000
      9 C19         -3.9850     1.1010    -0.9460 ca         1 6N8      -0.122000
     10 C23         -2.6920     2.0330     0.8390 ca         1 6N8      -0.122000
     11 C4          -1.9030    -1.1640    -0.2290 ca         1 6N8      -0.079800
     12 C18         -2.7810     1.1650    -0.2440 ca         1 6N8      -0.079800
     13 C11          3.2190    -0.3910    -0.3750 c          1 6N8       0.687900
     14 C15          6.5660     0.5460     0.4270 cc         1 6N8      -0.189000
     15 C16          5.8520     1.6580     0.9610 cc         1 6N8      -0.189000
     16 C14          5.6500    -0.3080    -0.1090 cd         1 6N8      -0.138800
     17 C17          4.5270     1.4450     0.7250 cd         1 6N8      -0.138800
     18 C8          -0.2620     0.7420    -0.2230 c3         1 6N8      -0.086400
     19 C9           0.8470    -0.0830    -0.8570 c3         1 6N8       0.104000
     20 C7          -1.6440     0.2610    -0.6760 c3         1 6N8       0.035900
     21 N13          4.4000     0.2420     0.0640 n          1 6N8      -0.079200
     22 N10          2.1450     0.4080    -0.4440 ns         1 6N8      -0.572900
     23 O12          3.2260    -1.5750    -0.6470 o          1 6N8      -0.587100
     24 H1          -2.5000    -4.8250     0.9180 ha         1 6N8       0.131500
     25 H2          -2.3900    -2.9970     2.5870 ha         1 6N8       0.131250
     26 H6          -2.2280    -4.3010    -1.4880 ha         1 6N8       0.131250
     27 H21         -5.8150     3.3570     0.7960 ha         1 6N8       0.131500
     28 H20         -5.9930     1.8170    -1.1400 ha         1 6N8       0.131250
     29 H22         -3.6910     3.4860     2.0590 ha         1 6N8       0.131250
     30 H3          -2.0250    -0.6820     1.8640 ha         1 6N8       0.129250
     31 H5          -1.8490    -1.9780    -2.2110 ha         1 6N8       0.129250
     32 H19         -4.0700     0.4290    -1.7920 ha         1 6N8       0.129250
     33 H23         -1.7730     2.1110     1.4050 ha         1 6N8       0.129250
     34 H7          -1.6430     0.2620    -1.7720 hc         1 6N8       0.057700
     35 H10          2.2700     1.4080    -0.4330 hn         1 6N8       0.320500
     36 H16          6.2680     2.5120     1.4720 ha         1 6N8       0.152500
     37 H14          5.7800    -1.2500    -0.6120 h4         1 6N8       0.171500
     38 H17          3.6750     2.0370     1.0120 h4         1 6N8       0.171500
     39 H81C        -0.1690     0.6910     0.8650 hc         1 6N8       0.050700
     40 H82C        -0.1430     1.7930    -0.5040 hc         1 6N8       0.050700
     41 H91C         0.7600    -1.1260    -0.5570 h1         1 6N8       0.061200
     42 H92C         0.7530    -0.0550    -1.9480 h1         1 6N8       0.061200
     43 H15          7.6340     0.3960     0.4390 ha         1 6N8       0.152500
@<TRIPOS>BOND
     1     1     3 ar  
     2     1     4 ar  
     3     1    24 1   
     4     2     5 ar  
     5     2     6 ar  
     6     2    27 1   
     7     3     7 ar  
     8     3    25 1   
     9     4     8 ar  
    10     4    26 1   
    11     5     9 ar  
    12     5    28 1   
    13     6    10 ar  
    14     6    29 1   
    15     7    11 ar  
    16     7    30 1   
    17     8    11 ar  
    18     8    31 1   
    19     9    12 ar  
    20     9    32 1   
    21    10    12 ar  
    22    10    33 1   
    23    11    20 1   
    24    12    20 1   
    25    13    21 1   
    26    13    22 1   
    27    13    23 2   
    28    14    15 1   
    29    14    16 2   
    30    14    43 1   
    31    15    17 2   
    32    15    36 1   
    33    16    21 1   
    34    16    37 1   
    35    17    21 1   
    36    17    38 1   
    37    18    19 1   
    38    18    20 1   
    39    18    39 1   
    40    18    40 1   
    41    19    22 1   
    42    19    41 1   
    43    19    42 1   
    44    20    34 1   
    45    22    35 1   
@<TRIPOS>SUBSTRUCTURE
     1 6N8         1 TEMP              0 ****  ****    0 ROOT
