@<TRIPOS>MOLECULE
6N8
   43    45     1     0     0
SMALL
No Charge or Current Charge


@<TRIPOS>ATOM
      1 C1          -2.5610    -3.8690     0.7010 ca         1 6N8      -0.107500
      2 C21         -4.9770     2.8480     0.3540 ca         1 6N8      -0.107500
      3 C2          -2.3790    -2.8430     1.6430 ca         1 6N8      -0.107500
      4 C6          -2.4570    -3.5850    -0.6710 ca         1 6N8      -0.107500
      5 C20         -5.0090     2.0650    -0.8110 ca         1 6N8      -0.107500
      6 C22         -3.8700     2.7730     1.2150 ca         1 6N8      -0.107500
      7 C3          -2.0930    -1.5360     1.2140 ca         1 6N8      -0.104000
      8 C5          -2.1710    -2.2780    -1.1000 ca         1 6N8      -0.104000
      9 C19         -3.9340     1.2120    -1.1150 ca         1 6N8      -0.104000
     10 C23         -2.7950     1.9200     0.9110 ca         1 6N8      -0.104000
     11 C4          -1.9830    -1.2420    -0.1610 ca         1 6N8      -0.079800
     12 C18         -2.8130     1.1330    -0.2630 ca         1 6N8      -0.079800
     13 C11          3.3950    -0.2910    -0.6350 c          1 6N8       0.620900
     14 C15          6.7600     0.7510     0.3570 cc         1 6N8      -0.171000
     15 C16          5.9760     1.7230     1.0250 cc         1 6N8      -0.171000
     16 C14          5.8850    -0.0680    -0.3070 cd         1 6N8      -0.171500
     17 C17          4.6660     1.4410     0.7310 cd         1 6N8      -0.171500
     18 C8          -0.2670     0.6500    -0.1580 c3         1 6N8      -0.086400
     19 C9           0.8840    -0.2030    -0.7300 c3         1 6N8       0.104000
     20 C7          -1.6680     0.1790    -0.6350 c3         1 6N8       0.035900
     21 N13          4.5610     0.3230    -0.1040 n          1 6N8       0.022200
     22 N10          2.1900     0.2860    -0.2870 ns         1 6N8      -0.505900
     23 O12          3.4410    -1.2770    -1.3620 o          1 6N8      -0.587100
     24 H1          -2.7820    -4.8810     1.0330 ha         1 6N8       0.113500
     25 H2          -2.4610    -3.0610     2.7060 ha         1 6N8       0.113250
     26 H6          -2.5990    -4.3780    -1.4020 ha         1 6N8       0.113250
     27 H21         -5.8090     3.5080     0.5910 ha         1 6N8       0.113500
     28 H20         -5.8670     2.1180    -1.4780 ha         1 6N8       0.113250
     29 H22         -3.8460     3.3750     2.1210 ha         1 6N8       0.113250
     30 H3          -1.9580    -0.7510     1.9540 ha         1 6N8       0.111250
     31 H5          -2.0930    -2.0730    -2.1660 ha         1 6N8       0.111250
     32 H19         -3.9750     0.6070    -2.0190 ha         1 6N8       0.111250
     33 H23         -1.9570     1.8760     1.6010 ha         1 6N8       0.111250
     34 H7          -1.6110     0.1710    -1.7310 hc         1 6N8       0.057700
     35 H10          2.2260     1.0980     0.3160 hn         1 6N8       0.320500
     36 H16          6.3540     2.5300     1.6480 ha         1 6N8       0.134500
     37 H14          6.0750    -0.9320    -0.9350 h4         1 6N8       0.153500
     38 H17          3.7660     1.9520     1.0510 h4         1 6N8       0.153500
     39 H81C        -0.2080     0.6220     0.9360 hc         1 6N8       0.050700
     40 H82C        -0.1200     1.6930    -0.4650 hc         1 6N8       0.050700
     41 H91C         0.7690    -1.2460    -0.4060 h1         1 6N8       0.061200
     42 H92C         0.8510    -0.1790    -1.8280 h1         1 6N8       0.061200
     43 H15          7.8450     0.6830     0.3770 ha         1 6N8       0.134500
@<TRIPOS>BOND
     1     1     3 ar  
     2     1     4 ar  
     3     1    24 1   
     4     2     5 ar  
     5     2     6 ar  
     6     2    27 1   
     7     3     7 ar  
     8     3    25 1   
     9     4     8 ar  
    10     4    26 1   
    11     5     9 ar  
    12     5    28 1   
    13     6    10 ar  
    14     6    29 1   
    15     7    11 ar  
    16     7    30 1   
    17     8    11 ar  
    18     8    31 1   
    19     9    12 ar  
    20     9    32 1   
    21    10    12 ar  
    22    10    33 1   
    23    11    20 1   
    24    12    20 1   
    25    13    21 1   
    26    13    22 1   
    27    13    23 2   
    28    14    15 1   
    29    14    16 2   
    30    14    43 1   
    31    15    17 2   
    32    15    36 1   
    33    16    21 1   
    34    16    37 1   
    35    17    21 1   
    36    17    38 1   
    37    18    19 1   
    38    18    20 1   
    39    18    39 1   
    40    18    40 1   
    41    19    22 1   
    42    19    41 1   
    43    19    42 1   
    44    20    34 1   
    45    22    35 1   
@<TRIPOS>SUBSTRUCTURE
     1 6N8         1 TEMP              0 ****  ****    0 ROOT
