@<TRIPOS>MOLECULE
6N9
   55    58     1     0     0
SMALL
abcg2


@<TRIPOS>ATOM
      1 C10        -11.3750    -7.8430   -33.1450 ca         1 6N9      -0.153000
      2 C13        -11.7210    -5.1820   -32.5180 ca         1 6N9       0.174000
      3 C17        -10.9680    -4.9530   -29.4100 cc         1 6N9      -0.236400
      4 C20         -9.7120    -3.7590   -27.9130 ca         1 6N9       0.352500
      5 C22         -9.7510    -4.5990   -29.9840 cd         1 6N9      -0.077100
      6 C24        -11.3960    -3.7730   -25.8050 cp         1 6N9      -0.087000
      7 C28        -11.6880    -3.7970   -23.3130 ca         1 6N9      -0.061500
      8 C01         -8.1310    -1.9460   -32.6710 c3         1 6N9      -0.081100
      9 C02         -9.1650    -2.3170   -33.7320 c3         1 6N9      -0.048400
     10 C03         -8.8290    -3.6600   -34.3680 c3         1 6N9      -0.352400
     11 S04         -9.9870    -4.1950   -35.6200 s6         1 6N9       1.202100
     12 N05        -11.4280    -4.5340   -34.8520 nu         1 6N9      -0.866100
     13 O06        -10.2910    -3.0990   -36.5080 o          1 6N9      -0.526000
     14 O07         -9.4940    -5.4360   -36.1670 o          1 6N9      -0.526000
     15 C08        -11.4880    -5.5330   -33.8460 ca         1 6N9       0.185000
     16 C09        -11.3270    -6.8830   -34.1460 ca         1 6N9      -0.037000
     17 C11        -11.6060    -7.4390   -31.8440 ca         1 6N9       0.223000
     18 C12        -11.7840    -6.1080   -31.4880 ca         1 6N9      -0.221600
     19 F14        -11.9060    -3.8760   -32.2250 f          1 6N9      -0.172000
     20 F15        -11.6440    -8.3720   -30.8690 f          1 6N9      -0.156000
     21 C16        -12.0180    -5.6980   -30.0520 c          1 6N9       0.636900
     22 O18        -13.0640    -6.0210   -29.4970 o          1 6N9      -0.505100
     23 C19        -10.9530    -4.4180   -28.0670 ca         1 6N9      -0.081800
     24 N21         -9.0130    -3.8920   -29.1000 na         1 6N9      -0.315400
     25 C23        -11.8100    -4.4230   -26.9710 ca         1 6N9      -0.020000
     26 C25        -10.1360    -3.1410   -25.7990 ca         1 6N9       0.359900
     27 N26         -9.2890    -3.1280   -26.8300 nb         1 6N9      -0.671000
     28 C27        -12.2480    -3.7410   -24.5980 cp         1 6N9      -0.073000
     29 C29        -12.4820    -3.7710   -22.1810 ca         1 6N9      -0.168000
     30 C30        -13.8720    -3.6870   -22.2970 ca         1 6N9       0.143100
     31 C31        -14.4500    -3.6310   -23.5660 ca         1 6N9      -0.168000
     32 C32        -13.6380    -3.6580   -24.6950 ca         1 6N9      -0.061500
     33 O33        -14.5720    -3.6670   -21.1320 os         1 6N9      -0.348100
     34 C34        -15.9960    -3.5990   -21.2010 c3         1 6N9       0.148900
     35 H101       -11.2430    -8.8930   -33.3670 ha         1 6N9       0.151000
     36 H221        -9.3720    -4.8120   -30.9700 h4         1 6N9       0.218000
     37 H281       -10.6150    -3.8850   -23.1970 ha         1 6N9       0.116500
     38 H011        -8.3770    -0.9830   -32.2200 hc         1 6N9       0.035367
     39 H013        -8.0990    -2.6930   -31.8760 hc         1 6N9       0.035367
     40 H012        -7.1320    -1.8720   -33.1060 hc         1 6N9       0.035367
     41 H022        -9.1970    -1.5510   -34.5080 hc         1 6N9       0.055200
     42 H021       -10.1570    -2.3590   -33.2780 hc         1 6N9       0.055200
     43 H032        -8.7960    -4.4690   -33.6350 h1         1 6N9       0.098700
     44 H031        -7.8700    -3.6350   -34.8890 h1         1 6N9       0.098700
     45 H051       -11.9350    -3.6820   -34.6390 hn         1 6N9       0.501000
     46 H091       -11.1600    -7.1740   -35.1720 ha         1 6N9       0.159000
     47 H1          -8.0930    -3.5180   -29.2770 hn         1 6N9       0.367000
     48 H231       -12.7610    -4.9330   -27.0140 ha         1 6N9       0.144000
     49 H251        -9.8100    -2.6100   -24.9130 h4         1 6N9       0.026100
     50 H291       -12.0400    -3.8250   -21.1940 ha         1 6N9       0.124000
     51 H311       -15.5210    -3.5590   -23.6870 ha         1 6N9       0.124000
     52 H321       -14.1040    -3.5930   -25.6690 ha         1 6N9       0.116500
     53 H342       -16.3450    -3.6020   -20.1710 h1         1 6N9       0.043033
     54 H2         -16.3220    -2.6810   -21.6970 h1         1 6N9       0.043033
     55 H341       -16.4040    -4.4630   -21.7300 h1         1 6N9       0.043033
@<TRIPOS>BOND
     1     1    16 ar  
     2     1    17 ar  
     3     1    35 1   
     4     2    15 ar  
     5     2    18 ar  
     6     2    19 1   
     7     3     5 2   
     8     3    21 1   
     9     3    23 1   
    10     4    23 ar  
    11     4    24 1   
    12     4    27 ar  
    13     5    24 1   
    14     5    36 1   
    15     6    25 ar  
    16     6    26 ar  
    17     6    28 1   
    18     7    28 ar  
    19     7    29 ar  
    20     7    37 1   
    21     8     9 1   
    22     8    38 1   
    23     8    39 1   
    24     8    40 1   
    25     9    10 1   
    26     9    41 1   
    27     9    42 1   
    28    10    11 1   
    29    10    43 1   
    30    10    44 1   
    31    11    12 1   
    32    11    13 2   
    33    11    14 2   
    34    12    15 1   
    35    12    45 1   
    36    15    16 ar  
    37    16    46 1   
    38    17    18 ar  
    39    17    20 1   
    40    18    21 1   
    41    21    22 2   
    42    23    25 ar  
    43    24    47 1   
    44    25    48 1   
    45    26    27 ar  
    46    26    49 1   
    47    28    32 ar  
    48    29    30 ar  
    49    29    50 1   
    50    30    31 ar  
    51    30    33 1   
    52    31    32 ar  
    53    31    51 1   
    54    32    52 1   
    55    33    34 1   
    56    34    53 1   
    57    34    54 1   
    58    34    55 1   
@<TRIPOS>SUBSTRUCTURE
     1 6N9         1 TEMP              0 ****  ****    0 ROOT
