@<TRIPOS>MOLECULE
6N9
   55    58     1     0     0
SMALL
No Charge or Current Charge


@<TRIPOS>ATOM
      1 C10        -11.3300    -7.6410   -33.0770 ca         1 6N9      -0.153000
      2 C13        -11.7170    -4.9960   -32.2440 ca         1 6N9       0.174000
      3 C17        -10.8050    -4.7200   -29.2690 cc         1 6N9      -0.236400
      4 C20         -9.6880    -3.3240   -27.8490 ca         1 6N9       0.352500
      5 C22         -9.6590    -4.2570   -29.9060 cd         1 6N9      -0.077100
      6 C24        -11.4330    -3.5440   -25.7020 cp         1 6N9      -0.087000
      7 C28        -11.8300    -3.5210   -23.1930 ca         1 6N9      -0.061500
      8 C01         -7.4180    -2.8760   -33.1560 c3         1 6N9      -0.081100
      9 C02         -8.7950    -2.8230   -33.8420 c3         1 6N9      -0.048400
     10 C03         -8.9390    -3.8950   -34.9530 c3         1 6N9      -0.352400
     11 S04        -10.5430    -3.9070   -35.7720 s6         1 6N9       1.202100
     12 N05        -11.6370    -4.2280   -34.5640 nu         1 6N9      -0.866100
     13 O06        -10.8650    -2.5510   -36.2180 o          1 6N9      -0.526000
     14 O07        -10.6070    -5.0330   -36.7060 o          1 6N9      -0.526000
     15 C08        -11.5770    -5.2740   -33.6270 ca         1 6N9       0.185000
     16 C09        -11.3860    -6.6100   -34.0320 ca         1 6N9      -0.037000
     17 C11        -11.4550    -7.3480   -31.7120 ca         1 6N9       0.223000
     18 C12        -11.6320    -6.0230   -31.2830 ca         1 6N9      -0.221600
     19 F14        -11.9510    -3.7220   -31.8450 f          1 6N9      -0.172000
     20 F15        -11.3720    -8.3540   -30.8140 f          1 6N9      -0.156000
     21 C16        -11.7570    -5.7230   -29.8230 c          1 6N9       0.636900
     22 O18        -12.6400    -6.2430   -29.1530 o          1 6N9      -0.505100
     23 C19        -10.8000    -4.1300   -27.9550 ca         1 6N9      -0.081800
     24 N21         -8.9780    -3.3770   -29.0310 na         1 6N9      -0.315400
     25 C23        -11.7060    -4.2640   -26.8930 ca         1 6N9      -0.020000
     26 C25        -10.2540    -2.7410   -25.6910 ca         1 6N9       0.359900
     27 N26         -9.3950    -2.6260   -26.7380 nb         1 6N9      -0.671000
     28 C27        -12.3410    -3.6220   -24.5120 cp         1 6N9      -0.073000
     29 C29        -12.6820    -3.5950   -22.0780 ca         1 6N9      -0.168000
     30 C30        -14.0630    -3.7690   -22.2480 ca         1 6N9       0.143100
     31 C31        -14.5930    -3.8710   -23.5510 ca         1 6N9      -0.168000
     32 C32        -13.7400    -3.7980   -24.6660 ca         1 6N9      -0.061500
     33 O33        -14.8500    -3.8340   -21.1160 os         1 6N9      -0.348100
     34 C34        -16.2770    -4.0120   -21.1820 c3         1 6N9       0.148900
     35 H101       -11.1870    -8.6710   -33.3960 ha         1 6N9       0.151000
     36 H221        -9.2700    -4.4940   -30.8950 h4         1 6N9       0.218000
     37 H281       -10.7620    -3.3990   -23.0290 ha         1 6N9       0.116500
     38 H011        -7.3500    -2.1090   -32.3750 hc         1 6N9       0.035367
     39 H013        -7.2540    -3.8560   -32.6910 hc         1 6N9       0.035367
     40 H012        -6.6160    -2.6990   -33.8830 hc         1 6N9       0.035367
     41 H022        -8.9400    -1.8220   -34.2700 hc         1 6N9       0.055200
     42 H021        -9.5700    -2.9610   -33.0790 hc         1 6N9       0.055200
     43 H032        -8.8020    -4.9010   -34.5420 h1         1 6N9       0.098700
     44 H031        -8.2010    -3.7280   -35.7450 h1         1 6N9       0.098700
     45 H051       -11.8480    -3.3100   -34.1940 hn         1 6N9       0.501000
     46 H091       -11.2990    -6.8590   -35.0850 ha         1 6N9       0.159000
     47 H1          -8.1120    -2.8850   -29.2130 hn         1 6N9       0.367000
     48 H231       -12.5770    -4.9070   -26.9750 ha         1 6N9       0.144000
     49 H251        -9.9970    -2.1540   -24.8100 h4         1 6N9       0.026100
     50 H291       -12.2690    -3.5190   -21.0760 ha         1 6N9       0.124000
     51 H311       -15.6580    -4.0020   -23.7190 ha         1 6N9       0.124000
     52 H321       -14.1740    -3.8640   -25.6610 ha         1 6N9       0.116500
     53 H342       -16.7040    -4.0360   -20.1720 h1         1 6N9       0.043033
     54 H2         -16.7480    -3.1860   -21.7300 h1         1 6N9       0.043033
     55 H341       -16.5300    -4.9560   -21.6810 h1         1 6N9       0.043033
@<TRIPOS>BOND
     1     1    16 ar  
     2     1    17 ar  
     3     1    35 1   
     4     2    15 ar  
     5     2    18 ar  
     6     2    19 1   
     7     3     5 2   
     8     3    21 1   
     9     3    23 1   
    10     4    23 ar  
    11     4    24 1   
    12     4    27 ar  
    13     5    24 1   
    14     5    36 1   
    15     6    25 ar  
    16     6    26 ar  
    17     6    28 1   
    18     7    28 ar  
    19     7    29 ar  
    20     7    37 1   
    21     8     9 1   
    22     8    38 1   
    23     8    39 1   
    24     8    40 1   
    25     9    10 1   
    26     9    41 1   
    27     9    42 1   
    28    10    11 1   
    29    10    43 1   
    30    10    44 1   
    31    11    12 1   
    32    11    13 2   
    33    11    14 2   
    34    12    15 1   
    35    12    45 1   
    36    15    16 ar  
    37    16    46 1   
    38    17    18 ar  
    39    17    20 1   
    40    18    21 1   
    41    21    22 2   
    42    23    25 ar  
    43    24    47 1   
    44    25    48 1   
    45    26    27 ar  
    46    26    49 1   
    47    28    32 ar  
    48    29    30 ar  
    49    29    50 1   
    50    30    31 ar  
    51    30    33 1   
    52    31    32 ar  
    53    31    51 1   
    54    32    52 1   
    55    33    34 1   
    56    34    53 1   
    57    34    54 1   
    58    34    55 1   
@<TRIPOS>SUBSTRUCTURE
     1 6N9         1 TEMP              0 ****  ****    0 ROOT
