@<TRIPOS>MOLECULE
6NA
   19    18     1     0     0
SMALL
No Charge or Current Charge


@<TRIPOS>ATOM
      1 CA          -0.9260    -0.7340    -0.1830 c3         1 6NA      -0.203400
      2 C           -2.2550     0.0270    -0.0240 c          1 6NA       0.717000
      3 O           -2.7240     0.5810    -1.0070 o          1 6NA      -0.744000
      4 CB           0.2690     0.2190     0.0620 c3         1 6NA      -0.054400
      5 CG           1.6420    -0.4760    -0.0800 c3         1 6NA      -0.080400
      6 CD           2.8320     0.4770     0.1650 c3         1 6NA      -0.077400
      7 C6           4.2010    -0.2160     0.0230 c3         1 6NA      -0.086100
      8 OXT         -2.7580     0.0840     1.0880 o          1 6NA      -0.744000
      9 HAC1        -0.8120    -1.0980    -1.2120 hc         1 6NA       0.013700
     10 HAC2        -0.8410    -1.5220     0.5750 hc         1 6NA       0.013700
     11 HBC1         0.1870     0.6490     1.0690 hc         1 6NA       0.037200
     12 HBC2         0.2150     1.0560    -0.6460 hc         1 6NA       0.037200
     13 HGC1         1.7260    -0.9040    -1.0870 hc         1 6NA       0.022700
     14 HGC2         1.6980    -1.3110     0.6290 hc         1 6NA       0.022700
     15 HDC1         2.7530     0.9060     1.1720 hc         1 6NA       0.032700
     16 HDC2         2.7810     1.3130    -0.5440 hc         1 6NA       0.032700
     17 H6C1         4.2970    -1.0360     0.7440 hc         1 6NA       0.019700
     18 H6C2         4.3250    -0.6250    -0.9870 hc         1 6NA       0.019700
     19 H6C3         5.0120     0.4990     0.2060 hc         1 6NA       0.019700
@<TRIPOS>BOND
     1     1     2 1   
     2     1     4 1   
     3     1     9 1   
     4     1    10 1   
     5     2     3 1   
     6     2     8 1   
     7     4     5 1   
     8     4    11 1   
     9     4    12 1   
    10     5     6 1   
    11     5    13 1   
    12     5    14 1   
    13     6     7 1   
    14     6    15 1   
    15     6    16 1   
    16     7    17 1   
    17     7    18 1   
    18     7    19 1   
@<TRIPOS>SUBSTRUCTURE
     1 6NA         1 TEMP              0 ****  ****    0 ROOT
