@<TRIPOS>MOLECULE
6NA
   19    18     1     0     0
SMALL
abcg2


@<TRIPOS>ATOM
      1 CA          -0.8790    -0.6610     0.0140 c3         1 6NA      -0.203400
      2 C           -2.2790    -0.0210     0.0180 c          1 6NA       0.717000
      3 O           -2.3540     1.2240     0.0050 o          1 6NA      -0.744000
      4 CB           0.3030     0.2940    -0.0010 c3         1 6NA      -0.054400
      5 CG           1.6420    -0.4340    -0.0050 c3         1 6NA      -0.080400
      6 CD           2.8450     0.5020    -0.0220 c3         1 6NA      -0.077400
      7 C6           4.1720    -0.2450    -0.0130 c3         1 6NA      -0.086100
      8 OXT         -3.2420    -0.8180     0.0340 o          1 6NA      -0.744000
      9 HAC1        -0.8160    -1.3350    -0.8480 hc         1 6NA       0.013700
     10 HAC2        -0.8040    -1.3200     0.8880 hc         1 6NA       0.013700
     11 HBC1         0.2560     0.9580     0.8670 hc         1 6NA       0.037200
     12 HBC2         0.2440     0.9450    -0.8790 hc         1 6NA       0.037200
     13 HGC1         1.6940    -1.1010    -0.8730 hc         1 6NA       0.022700
     14 HGC2         1.7070    -1.0850     0.8750 hc         1 6NA       0.022700
     15 HDC1         2.7940     1.1720     0.8430 hc         1 6NA       0.032700
     16 HDC2         2.7900     1.1450    -0.9060 hc         1 6NA       0.032700
     17 H6C1         4.2650    -0.8700     0.8770 hc         1 6NA       0.019700
     18 H6C2         4.2600    -0.8990    -0.8830 hc         1 6NA       0.019700
     19 H6C3         5.0230     0.4380    -0.0270 hc         1 6NA       0.019700
@<TRIPOS>BOND
     1     1     2 1   
     2     1     4 1   
     3     1     9 1   
     4     1    10 1   
     5     2     3 1   
     6     2     8 1   
     7     4     5 1   
     8     4    11 1   
     9     4    12 1   
    10     5     6 1   
    11     5    13 1   
    12     5    14 1   
    13     6     7 1   
    14     6    15 1   
    15     6    16 1   
    16     7    17 1   
    17     7    18 1   
    18     7    19 1   
@<TRIPOS>SUBSTRUCTURE
     1 6NA         1 TEMP              0 ****  ****    0 ROOT
