@<TRIPOS>MOLECULE
6NB
  122   129     1     0     0
SMALL
No Charge or Current Charge


@<TRIPOS>ATOM
      1 C10         10.0260     2.0890    -3.1300 ca         1 6NB       0.349500
      2 C13         11.9280     2.4820    -1.8740 cc         1 6NB      -0.077600
      3 C15         12.8560     1.2050     0.6180 ca         1 6NB      -0.242100
      4 C17         14.0830     2.3080     2.4010 ca         1 6NB      -0.163000
      5 C20         14.0750     0.8430     0.0150 ca         1 6NB       0.184000
      6 C21         17.7700    -0.6270     1.9200 c3         1 6NB      -0.337900
      7 C22         19.0770    -1.0340     2.6420 c3         1 6NB      -0.044400
      8 C24          2.0620    -2.8480    -2.9000 c3         1 6NB       0.163100
      9 C26          0.0630    -5.2520    -0.8100 c3         1 6NB       0.161600
     10 C28         -1.1540    -3.9920     2.5210 c3         1 6NB       0.160600
     11 N01          9.0700     2.1360    -4.0750 nb         1 6NB      -0.672500
     12 N02         11.1860     2.8290    -3.0230 na         1 6NB      -0.306900
     13 N04         -9.0240     2.3060     3.8550 nb         1 6NB      -0.672500
     14 N05        -11.1260     3.0230     2.8240 na         1 6NB      -0.306900
     15 N          -16.4240     0.9400     0.2720 nu         1 6NB      -0.879600
     16 C01          4.4450    -2.2920    -2.5620 ca         1 6NB       0.154600
     17 C02          4.3060    -1.0090    -3.1320 ca         1 6NB      -0.174000
     18 C03          5.4200    -0.1550    -3.2230 ca         1 6NB      -0.060500
     19 C04          6.6950    -0.5550    -2.7490 cp         1 6NB      -0.075000
     20 C05          6.8110    -1.8480    -2.1800 ca         1 6NB      -0.060500
     21 C06          5.7000    -2.7030    -2.0900 ca         1 6NB      -0.174000
     22 C07          7.8790     0.3580    -2.8480 cp         1 6NB      -0.088000
     23 C08          8.9110     0.3430    -1.8730 ca         1 6NB      -0.020500
     24 C09          9.9780     1.2340    -2.0530 ca         1 6NB      -0.083800
     25 C11          8.0220     1.2840    -3.9260 ca         1 6NB       0.360900
     26 C12         11.1740     1.4840    -1.2700 cd         1 6NB      -0.242400
     27 C14         11.5610     0.8050     0.0010 c          1 6NB       0.641900
     28 C16         12.8670     1.9310     1.8150 ca         1 6NB       0.236500
     29 C18         15.3030     1.9520     1.7960 ca         1 6NB      -0.018000
     30 C19         15.3170     1.2070     0.5950 ca         1 6NB       0.178000
     31 C23         18.8300    -2.0570     3.7660 c3         1 6NB      -0.084600
     32 C25          1.1330    -4.0510    -2.6240 c3         1 6NB       0.160600
     33 C27         -0.0980    -5.2380     0.7290 c3         1 6NB       0.161600
     34 C29         -2.0690    -2.7730     2.7750 c3         1 6NB       0.163100
     35 C30         -4.4460    -2.1970     2.4270 ca         1 6NB       0.154600
     36 C31         -4.2930    -0.9050     2.9740 ca         1 6NB      -0.174000
     37 C32         -5.3970    -0.0370     3.0490 ca         1 6NB      -0.060500
     38 C33         -6.6760    -0.4310     2.5820 cp         1 6NB      -0.075000
     39 C34         -6.8080    -1.7340     2.0370 ca         1 6NB      -0.060500
     40 C35         -5.7050    -2.6020     1.9620 ca         1 6NB      -0.174000
     41 C36         -7.8500     0.4970     2.6650 cp         1 6NB      -0.088000
     42 C37         -8.8830     0.4760     1.6920 ca         1 6NB      -0.020500
     43 C38         -9.9420     1.3810     1.8510 ca         1 6NB      -0.083800
     44 C39         -9.9830     2.2550     2.9140 ca         1 6NB       0.349500
     45 C40         -7.9830     1.4420     3.7240 ca         1 6NB       0.360900
     46 C41        -11.1180     1.5950     1.0460 cc         1 6NB      -0.242400
     47 C42        -11.8230     2.6270     1.6560 cd         1 6NB      -0.077600
     48 C43        -11.4770     0.9480    -0.2470 c          1 6NB       0.641900
     49 C44        -12.8450     1.2290    -0.7830 ca         1 6NB      -0.242100
     50 C45        -12.9920     1.7220    -2.0890 ca         1 6NB       0.236500
     51 C46        -14.2660     1.9830    -2.6090 ca         1 6NB      -0.163000
     52 C47        -15.4140     1.7370    -1.8350 ca         1 6NB      -0.018000
     53 C48        -15.2970     1.2140    -0.5290 ca         1 6NB       0.178000
     54 C49        -13.9980     0.9660    -0.0160 ca         1 6NB       0.184000
     55 C50        -17.8040    -0.8560    -1.2790 c3         1 6NB      -0.337900
     56 C51        -19.1570    -1.4010    -1.7930 c3         1 6NB      -0.044400
     57 C          -18.9820    -2.6020    -2.7400 c3         1 6NB      -0.084600
     58 O01         10.8650    -0.0480     0.5340 o          1 6NB      -0.503600
     59 O02         18.4660     1.8470     1.1710 o          1 6NB      -0.522250
     60 O03         18.7870    -0.0630    -0.4770 o          1 6NB      -0.522250
     61 O05          0.9120    -4.1560    -1.2040 os         1 6NB      -0.438000
     62 O06         -0.9350    -4.1250     1.1030 os         1 6NB      -0.438000
     63 O07         -3.4020    -3.0930     2.3280 os         1 6NB      -0.335600
     64 O08        -10.7280     0.1770    -0.8310 o          1 6NB      -0.503600
     65 O09        -18.6180     0.1060     1.0680 o          1 6NB      -0.522250
     66 O          -18.5040     1.7020    -0.9080 o          1 6NB      -0.522250
     67 F01         14.0570     0.1220    -1.1320 f          1 6NB      -0.169500
     68 F02         11.7060     2.2910     2.4060 f          1 6NB      -0.152500
     69 F03        -13.8680     0.4240     1.2200 f          1 6NB      -0.169500
     70 F          -11.9060     1.9850    -2.8490 f          1 6NB      -0.152500
     71 S01         18.0290     0.5700     0.6030 s6         1 6NB       1.179600
     72 S          -17.9790     0.5500    -0.1710 s6         1 6NB       1.179600
     73 H1          12.8710     2.9520    -1.6020 h4         1 6NB       0.221500
     74 H2          14.0800     2.8800     3.3250 ha         1 6NB       0.149500
     75 H3          17.2970    -1.4970     1.4530 h1         1 6NB       0.096450
     76 H4          17.0690    -0.1660     2.6240 h1         1 6NB       0.096450
     77 H5          19.7820    -1.4630     1.9180 hc         1 6NB       0.056950
     78 H6          19.5580    -0.1440     3.0690 hc         1 6NB       0.056950
     79 H7           2.0660    -2.6450    -3.9790 h1         1 6NB       0.045950
     80 H8           1.6740    -1.9610    -2.3820 h1         1 6NB       0.045950
     81 H9           0.5120    -6.2080    -1.1100 h1         1 6NB       0.031700
     82 H10         -0.9250    -5.1760    -1.2830 h1         1 6NB       0.031700
     83 H11         -0.1990    -3.8320     3.0400 h1         1 6NB       0.032950
     84 H12         -1.6220    -4.8950     2.9350 h1         1 6NB       0.032950
     85 H13         16.4560     0.2220    -0.8470 hn         1 6NB       0.499000
     86 H14        -11.3930     3.7500     3.4750 hn         1 6NB       0.367000
     87 H15        -16.2720     0.4810     1.1620 hn         1 6NB       0.499000
     88 H16          3.3490    -0.6570    -3.5050 ha         1 6NB       0.123750
     89 H17          5.2840     0.8340    -3.6540 ha         1 6NB       0.114750
     90 H18          7.7740    -2.2020    -1.8180 ha         1 6NB       0.114750
     91 H19          5.8120    -3.6920    -1.6530 ha         1 6NB       0.123750
     92 H20          8.8670    -0.3220    -1.0160 ha         1 6NB       0.144000
     93 H21          7.2680     1.3320    -4.7110 h4         1 6NB       0.024100
     94 H23         16.2280     2.2680     2.2670 ha         1 6NB       0.152500
     95 H24         18.1550    -1.6430     4.5240 hc         1 6NB       0.037700
     96 H25         18.3810    -2.9730     3.3640 hc         1 6NB       0.037700
     97 H26         19.7750    -2.3230     4.2550 hc         1 6NB       0.037700
     98 H27          0.1800    -3.8910    -3.1460 h1         1 6NB       0.032950
     99 H28          1.5900    -4.9670    -3.0220 h1         1 6NB       0.032950
    100 H29         -0.5590    -6.1820     1.0460 h1         1 6NB       0.031700
    101 H30          0.8910    -5.1640     1.2000 h1         1 6NB       0.031700
    102 H31         -2.0710    -2.5510     3.8500 h1         1 6NB       0.045950
    103 H32         -1.6720    -1.9000     2.2410 h1         1 6NB       0.045950
    104 H33         -3.3320    -0.5580     3.3410 ha         1 6NB       0.123750
    105 H34         -5.2500     0.9580     3.4620 ha         1 6NB       0.114750
    106 H35         -7.7740    -2.0820     1.6810 ha         1 6NB       0.114750
    107 H36         -5.8290    -3.5980     1.5440 ha         1 6NB       0.123750
    108 H37         -8.8470    -0.2070     0.8490 ha         1 6NB       0.144000
    109 H38         -7.2290     1.4980     4.5080 h4         1 6NB       0.024100
    110 H39        -12.7460     3.1160     1.3490 h4         1 6NB       0.221500
    111 H40        -14.3640     2.3820    -3.6160 ha         1 6NB       0.149500
    112 H41        -16.3860     1.9590    -2.2620 ha         1 6NB       0.152500
    113 H42        -17.2650    -1.6240    -0.7150 h1         1 6NB       0.096450
    114 H43        -17.1830    -0.5160    -2.1150 h1         1 6NB       0.096450
    115 H44        -19.7810    -1.7070    -0.9430 hc         1 6NB       0.056950
    116 H45        -19.7010    -0.6070    -2.3210 hc         1 6NB       0.056950
    117 H46        -18.3910    -2.3190    -3.6200 hc         1 6NB       0.037700
    118 H47        -18.4710    -3.4270    -2.2300 hc         1 6NB       0.037700
    119 H48        -19.9590    -2.9630    -3.0850 hc         1 6NB       0.037700
    120 H49         11.4530     3.5340    -3.6990 hn         1 6NB       0.367000
    121 O04          3.3910    -3.1740    -2.4470 os         1 6NB      -0.335600
    122 N03         16.5180     0.8310    -0.0390 nu         1 6NB      -0.879600
@<TRIPOS>BOND
     1     1    11 ar  
     2     1    12 1   
     3     1    24 ar  
     4     2    12 1   
     5     2    26 2   
     6     2    73 1   
     7     3     5 ar  
     8     3    27 1   
     9     3    28 ar  
    10     4    28 ar  
    11     4    29 ar  
    12     4    74 1   
    13     5    30 ar  
    14     5    67 1   
    15     6     7 1   
    16     6    71 1   
    17     6    75 1   
    18     6    76 1   
    19     7    31 1   
    20     7    77 1   
    21     7    78 1   
    22     8    32 1   
    23     8    79 1   
    24     8    80 1   
    25     8   121 1   
    26     9    33 1   
    27     9    61 1   
    28     9    81 1   
    29     9    82 1   
    30    10    34 1   
    31    10    62 1   
    32    10    83 1   
    33    10    84 1   
    34    11    25 ar  
    35    12   120 1   
    36    13    44 ar  
    37    13    45 ar  
    38    14    44 1   
    39    14    47 1   
    40    14    86 1   
    41    15    53 1   
    42    15    72 1   
    43    15    87 1   
    44    16    17 ar  
    45    16    21 ar  
    46    16   121 1   
    47    17    18 ar  
    48    17    88 1   
    49    18    19 ar  
    50    18    89 1   
    51    19    20 ar  
    52    19    22 1   
    53    20    21 ar  
    54    20    90 1   
    55    21    91 1   
    56    22    23 ar  
    57    22    25 ar  
    58    23    24 ar  
    59    23    92 1   
    60    24    26 1   
    61    25    93 1   
    62    26    27 1   
    63    27    58 2   
    64    28    68 1   
    65    29    30 ar  
    66    29    94 1   
    67    30   122 1   
    68    31    95 1   
    69    31    96 1   
    70    31    97 1   
    71    32    61 1   
    72    32    98 1   
    73    32    99 1   
    74    33    62 1   
    75    33   100 1   
    76    33   101 1   
    77    34    63 1   
    78    34   102 1   
    79    34   103 1   
    80    35    36 ar  
    81    35    40 ar  
    82    35    63 1   
    83    36    37 ar  
    84    36   104 1   
    85    37    38 ar  
    86    37   105 1   
    87    38    39 ar  
    88    38    41 1   
    89    39    40 ar  
    90    39   106 1   
    91    40   107 1   
    92    41    42 ar  
    93    41    45 ar  
    94    42    43 ar  
    95    42   108 1   
    96    43    44 ar  
    97    43    46 1   
    98    45   109 1   
    99    46    47 2   
   100    46    48 1   
   101    47   110 1   
   102    48    49 1   
   103    48    64 2   
   104    49    50 ar  
   105    49    54 ar  
   106    50    51 ar  
   107    50    70 1   
   108    51    52 ar  
   109    51   111 1   
   110    52    53 ar  
   111    52   112 1   
   112    53    54 ar  
   113    54    69 1   
   114    55    56 1   
   115    55    72 1   
   116    55   113 1   
   117    55   114 1   
   118    56    57 1   
   119    56   115 1   
   120    56   116 1   
   121    57   117 1   
   122    57   118 1   
   123    57   119 1   
   124    59    71 2   
   125    60    71 2   
   126    65    72 2   
   127    66    72 2   
   128    71   122 1   
   129    85   122 1   
@<TRIPOS>SUBSTRUCTURE
     1 6NB         1 TEMP              0 ****  ****    0 ROOT
