@<TRIPOS>MOLECULE
6NB
  122   129     1     0     0
SMALL
abcg2


@<TRIPOS>ATOM
      1 C10          9.6670     1.8620    -3.1070 ca         1 6NB       0.349500
      2 C13         11.2450     2.6790    -1.7750 cc         1 6NB      -0.077600
      3 C15         12.0120     2.0530     1.0070 ca         1 6NB      -0.242100
      4 C17         12.9710     3.5280     2.6770 ca         1 6NB      -0.163000
      5 C20         13.2960     1.6720     0.6690 ca         1 6NB       0.184000
      6 C21         15.6960    -0.8480     1.7150 c3         1 6NB      -0.337900
      7 C22         16.3560    -1.9260     2.5660 c3         1 6NB      -0.044400
      8 C24          2.2840    -3.5220    -3.2550 c3         1 6NB       0.163100
      9 C26          0.2110    -5.6480    -1.1200 c3         1 6NB       0.161600
     10 C28         -0.9600    -4.0860     1.9710 c3         1 6NB       0.160600
     11 N01          8.9330     1.6580    -4.1820 nb         1 6NB      -0.672500
     12 N02         10.7220     2.7360    -3.0110 na         1 6NB      -0.306900
     13 N04         -8.2310     2.5070     3.3470 nb         1 6NB      -0.672500
     14 N05        -10.2780     3.3390     2.4280 na         1 6NB      -0.306900
     15 N          -15.9830     1.7210     0.1140 nu         1 6NB      -0.879600
     16 C01          4.4700    -2.7660    -2.6960 ca         1 6NB       0.154600
     17 C02          4.3550    -1.6150    -3.4710 ca         1 6NB      -0.174000
     18 C03          5.4030    -0.7040    -3.5140 ca         1 6NB      -0.060500
     19 C04          6.5830    -0.9090    -2.8060 cp         1 6NB      -0.075000
     20 C05          6.6830    -2.0750    -2.0390 ca         1 6NB      -0.060500
     21 C06          5.6480    -2.9870    -1.9790 ca         1 6NB      -0.174000
     22 C07          7.6900     0.0630    -2.8540 cp         1 6NB      -0.088000
     23 C08          8.4890     0.3040    -1.7400 ca         1 6NB      -0.020500
     24 C09          9.5190     1.2290    -1.8610 ca         1 6NB      -0.083800
     25 C11          7.9670     0.7650    -4.0420 ca         1 6NB       0.360900
     26 C12         10.5470     1.7630    -1.0100 cd         1 6NB      -0.242400
     27 C14         10.8060     1.4240     0.3630 c          1 6NB       0.641900
     28 C16         11.8830     2.9780     2.0310 ca         1 6NB       0.236500
     29 C18         14.2420     3.1360     2.2910 ca         1 6NB      -0.018000
     30 C19         14.4270     2.1940     1.2850 ca         1 6NB       0.178000
     31 C23         15.5970    -3.2400     2.4440 c3         1 6NB      -0.084600
     32 C25          1.3740    -4.6680    -2.9010 c3         1 6NB       0.160600
     33 C27         -0.0560    -5.5180     0.3570 c3         1 6NB       0.161600
     34 C29         -1.7960    -2.8480     2.1530 c3         1 6NB       0.163100
     35 C30         -4.0530    -2.1700     1.8340 ca         1 6NB       0.154600
     36 C31         -3.8090    -0.8760     2.2870 ca         1 6NB      -0.174000
     37 C32         -4.8530     0.0350     2.3700 ca         1 6NB      -0.060500
     38 C33         -6.1550    -0.3060     2.0160 cp         1 6NB      -0.075000
     39 C34         -6.3810    -1.6090     1.5620 ca         1 6NB      -0.060500
     40 C35         -5.3530    -2.5260     1.4680 ca         1 6NB      -0.174000
     41 C36         -7.2590     0.6660     2.1160 cp         1 6NB      -0.088000
     42 C37         -8.2960     0.6830     1.1890 ca         1 6NB      -0.020500
     43 C38         -9.3080     1.6210     1.3550 ca         1 6NB      -0.083800
     44 C39         -9.1960     2.4950     2.4500 ca         1 6NB       0.349500
     45 C40         -7.2870     1.5970     3.1710 ca         1 6NB       0.360900
     46 C41        -10.5220     1.9790     0.6740 cc         1 6NB      -0.242400
     47 C42        -11.0650     3.0360     1.3820 cd         1 6NB      -0.077600
     48 C43        -11.0770     1.3680    -0.5030 c          1 6NB       0.641900
     49 C44        -12.4240     1.8630    -0.9580 ca         1 6NB      -0.242100
     50 C45        -12.5760     2.5510    -2.1510 ca         1 6NB       0.236500
     51 C46        -13.8060     2.9740    -2.6130 ca         1 6NB      -0.163000
     52 C47        -14.9320     2.6970    -1.8560 ca         1 6NB      -0.018000
     53 C48        -14.8380     1.9920    -0.6620 ca         1 6NB       0.178000
     54 C49        -13.5760     1.5850    -0.2470 ca         1 6NB       0.184000
     55 C50        -16.0990    -1.0420    -0.0420 c3         1 6NB      -0.337900
     56 C51        -16.9620    -2.2680    -0.3150 c3         1 6NB      -0.044400
     57 C          -16.1540    -3.5440    -0.1220 c3         1 6NB      -0.084600
     58 O01         10.1050     0.6730     1.0130 o          1 6NB      -0.503600
     59 O02         16.4880     1.1800     3.2040 o          1 6NB      -0.522250
     60 O03         17.8660     0.5720     1.1910 o          1 6NB      -0.522250
     61 O05          1.0660    -4.6120    -1.5330 os         1 6NB      -0.438000
     62 O06         -0.7990    -4.3500     0.6020 os         1 6NB      -0.438000
     63 O07         -3.1160    -3.1280     1.7210 os         1 6NB      -0.335600
     64 O08        -10.5160     0.4930    -1.1330 o          1 6NB      -0.503600
     65 O09        -18.1110     0.5400     0.6240 o          1 6NB      -0.522250
     66 O          -17.2560     0.6100    -1.7410 o          1 6NB      -0.522250
     67 F01         13.4550     0.7540    -0.2900 f          1 6NB      -0.169500
     68 F02         10.6520     3.3620     2.3780 f          1 6NB      -0.152500
     69 F03        -13.4680     0.8900     0.8900 f          1 6NB      -0.169500
     70 F          -11.4790     2.8310    -2.8570 f          1 6NB      -0.152500
     71 S01         16.5690     0.7080     1.8320 s6         1 6NB       1.179600
     72 S          -17.0050     0.4760    -0.3160 s6         1 6NB       1.179600
     73 H1          12.0810     3.3050    -1.5050 h4         1 6NB       0.221500
     74 H2          12.8320     4.2620     3.4580 ha         1 6NB       0.149500
     75 H3          15.6850    -1.1200     0.6580 h1         1 6NB       0.096450
     76 H4          14.6690    -0.6670     2.0390 h1         1 6NB       0.096450
     77 H5          17.3910    -2.0670     2.2480 hc         1 6NB       0.056950
     78 H6          16.3780    -1.6070     3.6090 hc         1 6NB       0.056950
     79 H7           2.4310    -3.5110    -4.3400 h1         1 6NB       0.045950
     80 H8           1.8230    -2.5700    -2.9690 h1         1 6NB       0.045950
     81 H9           0.6650    -6.6320    -1.3010 h1         1 6NB       0.031700
     82 H10         -0.7350    -5.6270    -1.6790 h1         1 6NB       0.031700
     83 H11          0.0100    -3.9110     2.4570 h1         1 6NB       0.032950
     84 H12         -1.4280    -4.9330     2.4920 h1         1 6NB       0.032950
     85 H13         15.8680     1.6500    -0.1000 hn         1 6NB       0.499000
     86 H14        -10.4570     4.0740     3.0950 hn         1 6NB       0.367000
     87 H15        -15.8790     1.8120     1.1200 hn         1 6NB       0.499000
     88 H16          3.4610    -1.4010    -4.0410 ha         1 6NB       0.123750
     89 H17          5.2730     0.1940    -4.1050 ha         1 6NB       0.114750
     90 H18          7.5910    -2.2850    -1.4880 ha         1 6NB       0.114750
     91 H19          5.7490    -3.8850    -1.3820 ha         1 6NB       0.123750
     92 H20          8.3000    -0.2010    -0.8030 ha         1 6NB       0.144000
     93 H21          7.3720     0.5690    -4.9280 h4         1 6NB       0.024100
     94 H23         15.1060     3.5730     2.7690 ha         1 6NB       0.152500
     95 H24         14.5630    -3.1320     2.7720 hc         1 6NB       0.037700
     96 H25         15.5860    -3.5980     1.4130 hc         1 6NB       0.037700
     97 H26         16.0630    -4.0100     3.0580 hc         1 6NB       0.037700
     98 H27          0.4690    -4.5820    -3.5180 h1         1 6NB       0.032950
     99 H28          1.8490    -5.6230    -3.1640 h1         1 6NB       0.032950
    100 H29         -0.6010    -6.4110     0.6930 h1         1 6NB       0.031700
    101 H30          0.8960    -5.5010     0.9060 h1         1 6NB       0.031700
    102 H31         -1.7860    -2.5700     3.2120 h1         1 6NB       0.045950
    103 H32         -1.3670    -2.0150     1.5840 h1         1 6NB       0.045950
    104 H33         -2.8170    -0.5520     2.5710 ha         1 6NB       0.123750
    105 H34         -4.6270     1.0410     2.7030 ha         1 6NB       0.114750
    106 H35         -7.3820    -1.9250     1.2980 ha         1 6NB       0.114750
    107 H36         -5.5540    -3.5330     1.1230 ha         1 6NB       0.123750
    108 H37         -8.3050    -0.0020     0.3520 ha         1 6NB       0.144000
    109 H38         -6.5010     1.5800     3.9180 h4         1 6NB       0.024100
    110 H39        -11.9630     3.6010     1.1930 h4         1 6NB       0.221500
    111 H40        -13.8820     3.5270    -3.5390 ha         1 6NB       0.149500
    112 H41        -15.9010     3.0410    -2.1890 ha         1 6NB       0.152500
    113 H42        -15.7510    -1.0210     0.9920 h1         1 6NB       0.096450
    114 H43        -15.2310    -1.0150    -0.7050 h1         1 6NB       0.096450
    115 H44        -17.8200    -2.2680     0.3590 hc         1 6NB       0.056950
    116 H45        -17.3520    -2.2270    -1.3330 hc         1 6NB       0.056950
    117 H46        -15.3170    -3.5930    -0.8190 hc         1 6NB       0.037700
    118 H47        -15.7520    -3.6090     0.8900 hc         1 6NB       0.037700
    119 H48        -16.7800    -4.4200    -0.2890 hc         1 6NB       0.037700
    120 H49         11.0490     3.3360    -3.7530 hn         1 6NB       0.367000
    121 O04          3.5160    -3.7070    -2.5800 os         1 6NB      -0.335600
    122 N03         15.7220     1.7960     0.8930 nu         1 6NB      -0.879600
@<TRIPOS>BOND
     1     1    11 ar  
     2     1    12 1   
     3     1    24 ar  
     4     2    12 1   
     5     2    26 2   
     6     2    73 1   
     7     3     5 ar  
     8     3    27 1   
     9     3    28 ar  
    10     4    28 ar  
    11     4    29 ar  
    12     4    74 1   
    13     5    30 ar  
    14     5    67 1   
    15     6     7 1   
    16     6    71 1   
    17     6    75 1   
    18     6    76 1   
    19     7    31 1   
    20     7    77 1   
    21     7    78 1   
    22     8    32 1   
    23     8    79 1   
    24     8    80 1   
    25     8   121 1   
    26     9    33 1   
    27     9    61 1   
    28     9    81 1   
    29     9    82 1   
    30    10    34 1   
    31    10    62 1   
    32    10    83 1   
    33    10    84 1   
    34    11    25 ar  
    35    12   120 1   
    36    13    44 ar  
    37    13    45 ar  
    38    14    44 1   
    39    14    47 1   
    40    14    86 1   
    41    15    53 1   
    42    15    72 1   
    43    15    87 1   
    44    16    17 ar  
    45    16    21 ar  
    46    16   121 1   
    47    17    18 ar  
    48    17    88 1   
    49    18    19 ar  
    50    18    89 1   
    51    19    20 ar  
    52    19    22 1   
    53    20    21 ar  
    54    20    90 1   
    55    21    91 1   
    56    22    23 ar  
    57    22    25 ar  
    58    23    24 ar  
    59    23    92 1   
    60    24    26 1   
    61    25    93 1   
    62    26    27 1   
    63    27    58 2   
    64    28    68 1   
    65    29    30 ar  
    66    29    94 1   
    67    30   122 1   
    68    31    95 1   
    69    31    96 1   
    70    31    97 1   
    71    32    61 1   
    72    32    98 1   
    73    32    99 1   
    74    33    62 1   
    75    33   100 1   
    76    33   101 1   
    77    34    63 1   
    78    34   102 1   
    79    34   103 1   
    80    35    36 ar  
    81    35    40 ar  
    82    35    63 1   
    83    36    37 ar  
    84    36   104 1   
    85    37    38 ar  
    86    37   105 1   
    87    38    39 ar  
    88    38    41 1   
    89    39    40 ar  
    90    39   106 1   
    91    40   107 1   
    92    41    42 ar  
    93    41    45 ar  
    94    42    43 ar  
    95    42   108 1   
    96    43    44 ar  
    97    43    46 1   
    98    45   109 1   
    99    46    47 2   
   100    46    48 1   
   101    47   110 1   
   102    48    49 1   
   103    48    64 2   
   104    49    50 ar  
   105    49    54 ar  
   106    50    51 ar  
   107    50    70 1   
   108    51    52 ar  
   109    51   111 1   
   110    52    53 ar  
   111    52   112 1   
   112    53    54 ar  
   113    54    69 1   
   114    55    56 1   
   115    55    72 1   
   116    55   113 1   
   117    55   114 1   
   118    56    57 1   
   119    56   115 1   
   120    56   116 1   
   121    57   117 1   
   122    57   118 1   
   123    57   119 1   
   124    59    71 2   
   125    60    71 2   
   126    65    72 2   
   127    66    72 2   
   128    71   122 1   
   129    85   122 1   
@<TRIPOS>SUBSTRUCTURE
     1 6NB         1 TEMP              0 ****  ****    0 ROOT
