@<TRIPOS>MOLECULE
6NC
  121   128     1     0     0
SMALL
abcg2


@<TRIPOS>ATOM
      1 C10        -20.2280   -10.5930   -15.4940 ca         1 6NC      -0.150000
      2 C13        -20.6260    -7.9500   -14.8220 ca         1 6NC       0.176500
      3 C17        -21.7240    -7.0400   -17.9590 cc         1 6NC      -0.235900
      4 C20        -23.3460    -6.3680   -19.4280 ca         1 6NC       0.356500
      5 C22        -22.9080    -7.7220   -17.7050 cd         1 6NC      -0.074100
      6 C24        -21.9290    -4.6020   -20.8870 cp         1 6NC      -0.103500
      7 C28        -20.2970    -2.7340   -21.2560 ca         1 6NC      -0.100500
      8 C02        -24.8300    -8.7050   -11.8100 c3         1 6NC      -0.045900
      9 C03        -23.5130    -8.3270   -12.4830 c3         1 6NC      -0.351400
     10 S04        -22.1040    -8.9710   -11.5980 s6         1 6NC       1.200100
     11 N05        -20.7540    -8.5020   -12.4570 nu         1 6NC      -0.862600
     12 O06        -21.9870    -8.2990   -10.3260 o          1 6NC      -0.525250
     13 O07        -22.1580   -10.4130   -11.6300 o          1 6NC      -0.525250
     14 C08        -20.5860    -8.9010   -13.8070 ca         1 6NC       0.187000
     15 C09        -20.3680   -10.2300   -14.1620 ca         1 6NC      -0.042500
     16 C11        -20.2870    -9.6090   -16.4620 ca         1 6NC       0.216500
     17 C12        -20.4740    -8.2670   -16.1610 ca         1 6NC      -0.221600
     18 F14        -20.8460    -6.6610   -14.4850 f          1 6NC      -0.170500
     19 F15        -20.1330    -9.9550   -17.7610 f          1 6NC      -0.158500
     20 C16        -20.4970    -7.1960   -17.2290 c          1 6NC       0.638400
     21 O18        -19.4940    -6.5150   -17.4150 o          1 6NC      -0.506100
     22 C19        -21.9930    -6.1560   -19.0720 ca         1 6NC      -0.083800
     23 N21        -23.8640    -7.3220   -18.5720 na         1 6NC      -0.313900
     24 C23        -21.2730    -5.2410   -19.8320 ca         1 6NC      -0.013500
     25 C25        -23.2860    -4.8990   -21.1190 ca         1 6NC       0.365900
     26 N26        -24.0030    -5.7690   -20.4080 nb         1 6NC      -0.669500
     27 C27        -21.2250    -3.6460   -21.7660 cp         1 6NC      -0.023000
     28 C29        -19.6240    -1.8570   -22.1010 ca         1 6NC      -0.093250
     29 C30        -19.8620    -1.8650   -23.4730 ca         1 6NC      -0.114800
     30 C31        -20.7930    -2.7700   -23.9840 ca         1 6NC      -0.093250
     31 C32        -21.4650    -3.6440   -23.1460 ca         1 6NC      -0.100500
     32 C33        -19.1240    -0.9260   -24.3970 c3         1 6NC       0.146300
     33 N34        -18.3830    -1.6320   -25.4320 ns         1 6NC      -0.510400
     34 C35        -18.7470    -1.6810   -26.7240 c          1 6NC       0.551100
     35 C36        -17.8480    -2.5520   -27.6090 c3         1 6NC       0.072600
     36 O37        -17.5180    -1.9330   -28.8410 os         1 6NC      -0.404000
     37 C38        -16.8080    -0.7050   -28.7130 c3         1 6NC       0.072600
     38 C39        -15.5100    -0.8820   -27.9210 c          1 6NC       0.551100
     39 N40        -15.4440    -0.1890   -26.7760 ns         1 6NC      -0.510400
     40 C41        -14.3500    -0.3470   -25.8160 c3         1 6NC       0.146300
     41 C42        -18.3960     5.1910   -14.0220 c3         1 6NC      -0.083100
     42 C43        -19.3420     4.1140   -13.4930 c3         1 6NC      -0.045900
     43 C44        -20.7910     4.5710   -13.5910 c3         1 6NC      -0.351400
     44 S45        -21.9800     3.3970   -12.9560 s6         1 6NC       1.200100
     45 O47        -23.2910     3.9810   -13.1070 o          1 6NC      -0.525250
     46 O48        -21.5610     2.9220   -11.6590 o          1 6NC      -0.525250
     47 C49        -22.1600     2.1640   -15.3340 ca         1 6NC       0.187000
     48 C50        -23.4010     2.5500   -15.8350 ca         1 6NC      -0.042500
     49 C51        -23.6050     2.6750   -17.2020 ca         1 6NC      -0.150000
     50 C52        -22.5610     2.3980   -18.0620 ca         1 6NC       0.216500
     51 C53        -21.3040     2.0000   -17.6190 ca         1 6NC      -0.221600
     52 C54        -21.1470     1.8810   -16.2460 ca         1 6NC       0.176500
     53 F55        -19.9560     1.4650   -15.7610 f          1 6NC      -0.170500
     54 C58        -19.0470     2.6500   -18.5120 cc         1 6NC      -0.235900
     55 C60        -17.8590     2.6450   -19.3340 ca         1 6NC      -0.083800
     56 C61        -17.0470     3.7070   -18.8710 ca         1 6NC       0.356500
     57 N62        -17.7120     4.3200   -17.8240 na         1 6NC      -0.313900
     58 C63        -18.8960     3.7020   -17.6160 cd         1 6NC      -0.074100
     59 C64        -17.3930     1.9180   -20.4220 ca         1 6NC      -0.013500
     60 C65        -16.1660     2.2820   -20.9810 cp         1 6NC      -0.103500
     61 C66        -15.4460     3.3440   -20.3970 ca         1 6NC       0.365900
     62 N67        -15.8680     4.0610   -19.3550 nb         1 6NC      -0.669500
     63 C68        -15.6460     1.5970   -22.1830 cp         1 6NC      -0.023000
     64 C69        -15.8840     0.2350   -22.3960 ca         1 6NC      -0.100500
     65 C70        -15.4370    -0.3930   -23.5500 ca         1 6NC      -0.093250
     66 C71        -14.7390     0.3180   -24.5250 ca         1 6NC      -0.114800
     67 C72        -14.4820     1.6700   -24.3090 ca         1 6NC      -0.093250
     68 C73        -14.9290     2.3020   -23.1580 ca         1 6NC      -0.100500
     69 O74        -19.7190    -1.0890   -27.1890 o          1 6NC      -0.588600
     70 O75        -14.6170    -1.6370   -28.3060 o          1 6NC      -0.588600
     71 H101       -20.0620   -11.6230   -15.7800 ha         1 6NC       0.151000
     72 H221       -23.1210    -8.4620   -16.9500 h4         1 6NC       0.220500
     73 H281       -20.1030    -2.7040   -20.1910 ha         1 6NC       0.120000
     74 H012       -26.9560    -8.4230   -12.1060 hc         1 6NC       0.036200
     75 H011       -25.9730    -7.0570   -12.6480 hc         1 6NC       0.036200
     76 H013       -26.0350    -8.5390   -13.6100 hc         1 6NC       0.036200
     77 H021       -24.8390    -8.3170   -10.7900 hc         1 6NC       0.056950
     78 H022       -24.9030    -9.7920   -11.7460 hc         1 6NC       0.056950
     79 H032       -23.4460    -8.7350   -13.4940 h1         1 6NC       0.095950
     80 H031       -23.3680    -7.2470   -12.5260 h1         1 6NC       0.095950
     81 H051       -20.5520    -7.5220   -12.2840 hn         1 6NC       0.500000
     82 H091       -20.3180   -10.9780   -13.3850 ha         1 6NC       0.160500
     83 H1         -24.8140    -7.6650   -18.5940 hn         1 6NC       0.369000
     84 H231       -20.2280    -5.0490   -19.6300 ha         1 6NC       0.142500
     85 H251       -23.8110    -4.3930   -21.9200 h4         1 6NC       0.028100
     86 H291       -18.9060    -1.1590   -21.6860 ha         1 6NC       0.118000
     87 H311       -20.9850    -2.7990   -25.0490 ha         1 6NC       0.118000
     88 H321       -22.1670    -4.3520   -23.5690 ha         1 6NC       0.120000
     89 H332       -19.8200    -0.2580   -24.9030 h1         1 6NC       0.064950
     90 H331       -18.4260    -0.3150   -23.8260 h1         1 6NC       0.064950
     91 H341       -17.5540    -2.1330   -25.1500 hn         1 6NC       0.317000
     92 H361       -18.4080    -3.4530   -27.8630 h1         1 6NC       0.071700
     93 H362       -16.9460    -2.8530   -27.0650 h1         1 6NC       0.071700
     94 H382       -16.5530    -0.3970   -29.7260 h1         1 6NC       0.071700
     95 H381       -17.4470     0.0600   -28.2630 h1         1 6NC       0.071700
     96 H401       -16.2520     0.3320   -26.4750 hn         1 6NC       0.317000
     97 H411       -13.4360     0.0870   -26.2270 h1         1 6NC       0.064950
     98 H412       -14.1710    -1.4120   -25.6580 h1         1 6NC       0.064950
     99 H421       -17.3620     4.8470   -13.9700 hc         1 6NC       0.036200
    100 H423       -18.6180     5.4340   -15.0630 hc         1 6NC       0.036200
    101 H422       -18.4800     6.1090   -13.4370 hc         1 6NC       0.036200
    102 H431       -19.2040     3.1940   -14.0620 hc         1 6NC       0.056950
    103 H432       -19.1050     3.8890   -12.4520 hc         1 6NC       0.056950
    104 H442       -20.9750     5.4730   -13.0020 h1         1 6NC       0.095950
    105 H441       -21.0960     4.7690   -14.6200 h1         1 6NC       0.095950
    106 H461       -21.1260     1.4670   -13.6940 hn         1 6NC       0.500000
    107 H501       -24.2040     2.7580   -15.1450 ha         1 6NC       0.160500
    108 H511       -24.5620     2.9840   -17.6000 ha         1 6NC       0.151000
    109 H2         -17.3720     5.1160   -17.3050 hn         1 6NC       0.369000
    110 H631       -19.5670     4.0500   -16.8490 h4         1 6NC       0.220500
    111 H641       -17.9850     1.1240   -20.8510 ha         1 6NC       0.142500
    112 H661       -14.4770     3.6160   -20.7960 h4         1 6NC       0.028100
    113 H691       -16.4180    -0.3420   -21.6520 ha         1 6NC       0.120000
    114 H701       -15.6370    -1.4470   -23.6980 ha         1 6NC       0.118000
    115 H721       -13.9470     2.2390   -25.0610 ha         1 6NC       0.118000
    116 H731       -14.7490     3.3610   -23.0340 ha         1 6NC       0.120000
    117 C57        -20.1760     1.7620   -18.5940 c          1 6NC       0.638400
    118 C01        -26.0180    -8.1470   -12.5910 c3         1 6NC      -0.083100
    119 F56        -22.7550     2.5540   -19.3890 f          1 6NC      -0.158500
    120 N46        -21.9170     2.0510   -13.9410 nu         1 6NC      -0.862600
    121 O59        -20.2700     0.8590   -19.4200 o          1 6NC      -0.506100
@<TRIPOS>BOND
     1     1    15 ar  
     2     1    16 ar  
     3     1    71 1   
     4     2    14 ar  
     5     2    17 ar  
     6     2    18 1   
     7     3     5 2   
     8     3    20 1   
     9     3    22 1   
    10     4    22 ar  
    11     4    23 1   
    12     4    26 ar  
    13     5    23 1   
    14     5    72 1   
    15     6    24 ar  
    16     6    25 ar  
    17     6    27 1   
    18     7    27 ar  
    19     7    28 ar  
    20     7    73 1   
    21     8     9 1   
    22     8    77 1   
    23     8    78 1   
    24     8   118 1   
    25     9    10 1   
    26     9    79 1   
    27     9    80 1   
    28    10    11 1   
    29    10    12 2   
    30    10    13 2   
    31    11    14 1   
    32    11    81 1   
    33    14    15 ar  
    34    15    82 1   
    35    16    17 ar  
    36    16    19 1   
    37    17    20 1   
    38    20    21 2   
    39    22    24 ar  
    40    23    83 1   
    41    24    84 1   
    42    25    26 ar  
    43    25    85 1   
    44    27    31 ar  
    45    28    29 ar  
    46    28    86 1   
    47    29    30 ar  
    48    29    32 1   
    49    30    31 ar  
    50    30    87 1   
    51    31    88 1   
    52    32    33 1   
    53    32    89 1   
    54    32    90 1   
    55    33    34 1   
    56    33    91 1   
    57    34    35 1   
    58    34    69 2   
    59    35    36 1   
    60    35    92 1   
    61    35    93 1   
    62    36    37 1   
    63    37    38 1   
    64    37    94 1   
    65    37    95 1   
    66    38    39 1   
    67    38    70 2   
    68    39    40 1   
    69    39    96 1   
    70    40    66 1   
    71    40    97 1   
    72    40    98 1   
    73    41    42 1   
    74    41    99 1   
    75    41   100 1   
    76    41   101 1   
    77    42    43 1   
    78    42   102 1   
    79    42   103 1   
    80    43    44 1   
    81    43   104 1   
    82    43   105 1   
    83    44    45 2   
    84    44    46 2   
    85    44   120 1   
    86    47    48 ar  
    87    47    52 ar  
    88    47   120 1   
    89    48    49 ar  
    90    48   107 1   
    91    49    50 ar  
    92    49   108 1   
    93    50    51 ar  
    94    50   119 1   
    95    51    52 ar  
    96    51   117 1   
    97    52    53 1   
    98    54    55 1   
    99    54    58 2   
   100    54   117 1   
   101    55    56 ar  
   102    55    59 ar  
   103    56    57 1   
   104    56    62 ar  
   105    57    58 1   
   106    57   109 1   
   107    58   110 1   
   108    59    60 ar  
   109    59   111 1   
   110    60    61 ar  
   111    60    63 1   
   112    61    62 ar  
   113    61   112 1   
   114    63    64 ar  
   115    63    68 ar  
   116    64    65 ar  
   117    64   113 1   
   118    65    66 ar  
   119    65   114 1   
   120    66    67 ar  
   121    67    68 ar  
   122    67   115 1   
   123    68   116 1   
   124    74   118 1   
   125    75   118 1   
   126    76   118 1   
   127   106   120 1   
   128   117   121 2   
@<TRIPOS>SUBSTRUCTURE
     1 6NC         1 TEMP              0 ****  ****    0 ROOT
