@<TRIPOS>MOLECULE
6NC
  121   128     1     0     0
SMALL
No Charge or Current Charge


@<TRIPOS>ATOM
      1 C10        -21.9440    -7.5690   -15.5650 ca         1 6NC      -0.150000
      2 C13        -20.4550    -5.2060   -15.3730 ca         1 6NC       0.176500
      3 C17        -22.4270    -4.0710   -18.2480 cc         1 6NC      -0.235900
      4 C20        -24.0270    -3.0250   -19.4910 ca         1 6NC       0.356500
      5 C22        -23.6380    -4.1420   -17.5690 cd         1 6NC      -0.074100
      6 C24        -22.4030    -2.3050   -21.6250 cp         1 6NC      -0.103500
      7 C28        -20.2010    -1.6320   -22.7260 ca         1 6NC      -0.100500
      8 C02        -22.0410    -6.5460    -9.6870 c3         1 6NC      -0.045900
      9 C03        -21.6760    -6.0570   -11.1080 c3         1 6NC      -0.351400
     10 S04        -19.9520    -6.3390   -11.5380 s6         1 6NC       1.200100
     11 N05        -19.7870    -5.7640   -13.0890 nu         1 6NC      -0.862600
     12 O06        -19.1080    -5.4630   -10.7250 o          1 6NC      -0.525250
     13 O07        -19.6880    -7.7780   -11.6000 o          1 6NC      -0.525250
     14 C08        -20.4940    -6.0910   -14.2630 ca         1 6NC       0.187000
     15 C09        -21.2420    -7.2820   -14.3810 ca         1 6NC      -0.042500
     16 C11        -21.9100    -6.6730   -16.6420 ca         1 6NC       0.216500
     17 C12        -21.1740    -5.4800   -16.5530 ca         1 6NC      -0.221600
     18 F14        -19.7330    -4.0610   -15.2840 f          1 6NC      -0.170500
     19 F15        -22.5590    -7.0000   -17.7820 f          1 6NC      -0.158500
     20 C16        -21.1180    -4.5340   -17.7130 c          1 6NC       0.638400
     21 O18        -20.0490    -4.2390   -18.2290 o          1 6NC      -0.506100
     22 C19        -22.6880    -3.3460   -19.4650 ca         1 6NC      -0.083800
     23 N21        -24.6330    -3.5110   -18.3510 na         1 6NC      -0.313900
     24 C23        -21.8360    -3.0060   -20.5270 ca         1 6NC      -0.013500
     25 C25        -23.7920    -1.9930   -21.5350 ca         1 6NC       0.365900
     26 N26        -24.5950    -2.3470   -20.5010 nb         1 6NC      -0.669500
     27 C27        -21.5920    -1.8970   -22.8220 cp         1 6NC      -0.023000
     28 C29        -19.4660    -1.1840   -23.8380 ca         1 6NC      -0.093250
     29 C30        -20.0950    -1.0040   -25.0820 ca         1 6NC      -0.114800
     30 C31        -21.4640    -1.2980   -25.2060 ca         1 6NC      -0.093250
     31 C32        -22.2000    -1.7370   -24.0930 ca         1 6NC      -0.100500
     32 C33        -19.3150    -0.4640   -26.2710 c3         1 6NC       0.146300
     33 N34        -18.3100    -1.4110   -26.7440 ns         1 6NC      -0.510400
     34 C35        -17.5230    -1.2020   -27.8560 c          1 6NC       0.551100
     35 C36        -16.4790    -2.3150   -28.1350 c3         1 6NC       0.072600
     36 O37        -15.5130    -1.9810   -29.1730 os         1 6NC      -0.404000
     37 C38        -14.5810    -0.9020   -28.8780 c3         1 6NC       0.072600
     38 C39        -13.6850    -1.2000   -27.6520 c          1 6NC       0.551100
     39 N40        -14.0260    -0.5310   -26.4950 ns         1 6NC      -0.510400
     40 C41        -13.3290    -0.6920   -25.2220 c3         1 6NC       0.146300
     41 C42        -21.7580     1.5660   -12.3970 c3         1 6NC      -0.083100
     42 C43        -21.5910     0.1470   -12.9680 c3         1 6NC      -0.045900
     43 C44        -22.9400    -0.6080   -13.0700 c3         1 6NC      -0.351400
     44 S45        -22.7950    -2.2780   -13.7230 s6         1 6NC       1.200100
     45 O47        -24.1270    -2.8360   -13.9600 o          1 6NC      -0.525250
     46 O48        -21.8070    -3.0150   -12.9380 o          1 6NC      -0.525250
     47 C49        -22.4450    -1.2600   -16.2800 ca         1 6NC       0.187000
     48 C50        -23.7820    -0.8870   -16.5280 ca         1 6NC      -0.042500
     49 C51        -24.0980    -0.0730   -17.6300 ca         1 6NC      -0.150000
     50 C52        -23.0860     0.3850   -18.4860 ca         1 6NC       0.216500
     51 C53        -21.7430     0.0550   -18.2400 ca         1 6NC      -0.221600
     52 C54        -21.4350    -0.7830   -17.1500 ca         1 6NC       0.176500
     53 F55        -20.1540    -1.1710   -16.9400 f          1 6NC      -0.170500
     54 C58        -19.4820     1.1750   -18.5180 cc         1 6NC      -0.235900
     55 C60        -18.1890     1.4240   -19.0990 ca         1 6NC      -0.083800
     56 C61        -17.4480     2.1570   -18.2000 ca         1 6NC       0.356500
     57 N62        -18.2110     2.3940   -17.0730 na         1 6NC      -0.313900
     58 C63        -19.4760     1.7890   -17.2710 cd         1 6NC      -0.074100
     59 C64        -17.6400     0.9830   -20.3110 ca         1 6NC      -0.013500
     60 C65        -16.2920     1.3330   -20.5830 cp         1 6NC      -0.103500
     61 C66        -15.6210     2.1230   -19.6050 ca         1 6NC       0.365900
     62 N67        -16.1760     2.5270   -18.4320 nb         1 6NC      -0.669500
     63 C68        -15.5840     0.8500   -21.8110 cp         1 6NC      -0.023000
     64 C69        -15.8570    -0.4310   -22.3520 ca         1 6NC      -0.100500
     65 C70        -15.1470    -0.9180   -23.4630 ca         1 6NC      -0.093250
     66 C71        -14.1410    -0.1380   -24.0610 ca         1 6NC      -0.114800
     67 C72        -13.8720     1.1460   -23.5510 ca         1 6NC      -0.093250
     68 C73        -14.5830     1.6320   -22.4400 ca         1 6NC      -0.100500
     69 O74        -17.6500    -0.1950   -28.5420 o          1 6NC      -0.588600
     70 O75        -12.7480    -1.9870   -27.6890 o          1 6NC      -0.588600
     71 H101       -22.5090    -8.4930   -15.6530 ha         1 6NC       0.151000
     72 H221       -23.8610    -4.5620   -16.5890 h4         1 6NC       0.220500
     73 H281       -19.6910    -1.7360   -21.7730 ha         1 6NC       0.120000
     74 H012       -23.7460    -6.6510    -8.3330 hc         1 6NC       0.036200
     75 H011       -23.7560    -5.2250    -9.3950 hc         1 6NC       0.036200
     76 H013       -24.1760    -6.8260   -10.0480 hc         1 6NC       0.036200
     77 H021       -21.4140    -6.0340    -8.9450 hc         1 6NC       0.056950
     78 H022       -21.8330    -7.6200    -9.5990 hc         1 6NC       0.056950
     79 H032       -22.2760    -6.5770   -11.8610 h1         1 6NC       0.095950
     80 H031       -21.8380    -4.9780   -11.1970 h1         1 6NC       0.095950
     81 H051       -19.4620    -4.8110   -12.9890 hn         1 6NC       0.500000
     82 H091       -21.2820    -8.0010   -13.5690 ha         1 6NC       0.160500
     83 H1         -25.6140    -3.4110   -18.1250 hn         1 6NC       0.369000
     84 H231       -20.7880    -3.2920   -20.5180 ha         1 6NC       0.142500
     85 H251       -24.2830    -1.4300   -22.3270 h4         1 6NC       0.028100
     86 H291       -18.4080    -0.9580   -23.7270 ha         1 6NC       0.118000
     87 H311       -21.9660    -1.1720   -26.1640 ha         1 6NC       0.118000
     88 H321       -23.2570    -1.9530   -24.2270 ha         1 6NC       0.120000
     89 H332       -20.0030    -0.2330   -27.0960 h1         1 6NC       0.064950
     90 H331       -18.8140     0.4690   -25.9810 h1         1 6NC       0.064950
     91 H341       -18.1690    -2.2670   -26.2200 hn         1 6NC       0.317000
     92 H361       -17.0460    -3.2070   -28.4280 h1         1 6NC       0.071700
     93 H362       -15.9770    -2.5540   -27.1890 h1         1 6NC       0.071700
     94 H382       -13.9100    -0.7420   -29.7310 h1         1 6NC       0.071700
     95 H381       -15.1050     0.0450   -28.7040 h1         1 6NC       0.071700
     96 H401       -14.8090     0.1110   -26.5350 hn         1 6NC       0.317000
     97 H411       -12.3590    -0.1800   -25.2810 h1         1 6NC       0.064950
     98 H412       -13.1350    -1.7600   -25.0500 h1         1 6NC       0.064950
     99 H421       -20.7870     2.0710   -12.3360 hc         1 6NC       0.036200
    100 H423       -22.4180     2.1650   -13.0360 hc         1 6NC       0.036200
    101 H422       -22.1910     1.5290   -11.3890 hc         1 6NC       0.036200
    102 H431       -21.1250     0.2200   -13.9590 hc         1 6NC       0.056950
    103 H432       -20.8980    -0.4150   -12.3280 hc         1 6NC       0.056950
    104 H442       -23.3990    -0.7140   -12.0810 h1         1 6NC       0.095950
    105 H441       -23.6320    -0.0780   -13.7330 h1         1 6NC       0.095950
    106 H461       -21.1030    -2.2670   -15.0570 hn         1 6NC       0.500000
    107 H501       -24.5860    -1.2430   -15.8920 ha         1 6NC       0.160500
    108 H511       -25.1320     0.2000   -17.8270 ha         1 6NC       0.151000
    109 H2         -17.9060     2.9200   -16.2630 hn         1 6NC       0.369000
    110 H631       -20.2730     1.8700   -16.5330 h4         1 6NC       0.220500
    111 H641       -18.2190     0.3820   -21.0060 ha         1 6NC       0.142500
    112 H661       -14.5800     2.4110   -19.7520 h4         1 6NC       0.028100
    113 H691       -16.6020    -1.0710   -21.8860 ha         1 6NC       0.120000
    114 H701       -15.3640    -1.9140   -23.8440 ha         1 6NC       0.118000
    115 H721       -13.1000     1.7630   -24.0060 ha         1 6NC       0.118000
    116 H731       -14.3490     2.6240   -22.0620 ha         1 6NC       0.120000
    117 C57        -20.6690     0.5490   -19.1570 c          1 6NC       0.638400
    118 C01        -23.5220    -6.2960    -9.3460 c3         1 6NC      -0.083100
    119 F56        -23.4190     1.1790   -19.5280 f          1 6NC      -0.158500
    120 N46        -22.0890    -2.1000   -15.2120 nu         1 6NC      -0.862600
    121 O59        -20.7380     0.3600   -20.3620 o          1 6NC      -0.506100
@<TRIPOS>BOND
     1     1    15 ar  
     2     1    16 ar  
     3     1    71 1   
     4     2    14 ar  
     5     2    17 ar  
     6     2    18 1   
     7     3     5 2   
     8     3    20 1   
     9     3    22 1   
    10     4    22 ar  
    11     4    23 1   
    12     4    26 ar  
    13     5    23 1   
    14     5    72 1   
    15     6    24 ar  
    16     6    25 ar  
    17     6    27 1   
    18     7    27 ar  
    19     7    28 ar  
    20     7    73 1   
    21     8     9 1   
    22     8    77 1   
    23     8    78 1   
    24     8   118 1   
    25     9    10 1   
    26     9    79 1   
    27     9    80 1   
    28    10    11 1   
    29    10    12 2   
    30    10    13 2   
    31    11    14 1   
    32    11    81 1   
    33    14    15 ar  
    34    15    82 1   
    35    16    17 ar  
    36    16    19 1   
    37    17    20 1   
    38    20    21 2   
    39    22    24 ar  
    40    23    83 1   
    41    24    84 1   
    42    25    26 ar  
    43    25    85 1   
    44    27    31 ar  
    45    28    29 ar  
    46    28    86 1   
    47    29    30 ar  
    48    29    32 1   
    49    30    31 ar  
    50    30    87 1   
    51    31    88 1   
    52    32    33 1   
    53    32    89 1   
    54    32    90 1   
    55    33    34 1   
    56    33    91 1   
    57    34    35 1   
    58    34    69 2   
    59    35    36 1   
    60    35    92 1   
    61    35    93 1   
    62    36    37 1   
    63    37    38 1   
    64    37    94 1   
    65    37    95 1   
    66    38    39 1   
    67    38    70 2   
    68    39    40 1   
    69    39    96 1   
    70    40    66 1   
    71    40    97 1   
    72    40    98 1   
    73    41    42 1   
    74    41    99 1   
    75    41   100 1   
    76    41   101 1   
    77    42    43 1   
    78    42   102 1   
    79    42   103 1   
    80    43    44 1   
    81    43   104 1   
    82    43   105 1   
    83    44    45 2   
    84    44    46 2   
    85    44   120 1   
    86    47    48 ar  
    87    47    52 ar  
    88    47   120 1   
    89    48    49 ar  
    90    48   107 1   
    91    49    50 ar  
    92    49   108 1   
    93    50    51 ar  
    94    50   119 1   
    95    51    52 ar  
    96    51   117 1   
    97    52    53 1   
    98    54    55 1   
    99    54    58 2   
   100    54   117 1   
   101    55    56 ar  
   102    55    59 ar  
   103    56    57 1   
   104    56    62 ar  
   105    57    58 1   
   106    57   109 1   
   107    58   110 1   
   108    59    60 ar  
   109    59   111 1   
   110    60    61 ar  
   111    60    63 1   
   112    61    62 ar  
   113    61   112 1   
   114    63    64 ar  
   115    63    68 ar  
   116    64    65 ar  
   117    64   113 1   
   118    65    66 ar  
   119    65   114 1   
   120    66    67 ar  
   121    67    68 ar  
   122    67   115 1   
   123    68   116 1   
   124    74   118 1   
   125    75   118 1   
   126    76   118 1   
   127   106   120 1   
   128   117   121 2   
@<TRIPOS>SUBSTRUCTURE
     1 6NC         1 TEMP              0 ****  ****    0 ROOT
