@<TRIPOS>MOLECULE
6ND
   47    49     1     0     0
SMALL
bcc


@<TRIPOS>ATOM
      1 C10          0.5790     1.8020    -0.1250 ca         1 6ND       0.305300
      2 C11          0.1290     0.7610     0.7090 ca         1 6ND       0.341300
      3 C13         -2.0150     1.4480     0.3330 ca         1 6ND       0.252500
      4 C14         -1.5650     2.4600    -0.4970 ca         1 6ND       0.343900
      5 C16         -3.4780     1.2750     0.6000 c          1 6ND       0.575600
      6 C22         -7.0540    -1.7820    -1.0830 cc         1 6ND       0.429700
      7 C24         -6.3360    -2.0980     0.9700 cd         1 6ND       0.349200
      8 C25         -7.6960    -2.0520    -2.3990 c3         1 6ND      -0.131400
      9 C26          1.0660    -0.1870     1.3810 c3         1 6ND      -0.146400
     10 C01          4.8830    -1.9770     1.9080 ca         1 6ND       0.151900
     11 C02          4.3160    -2.4650     0.7370 ca         1 6ND       0.077900
     12 C03          4.0850    -1.6290    -0.3290 ca         1 6ND      -0.049000
     13 C04          4.4350    -0.2890    -0.2040 ca         1 6ND      -0.268500
     14 C05          5.0110     0.2080     0.9530 ca         1 6ND      -0.024000
     15 C06          5.2310    -0.6490     2.0230 ca         1 6ND      -0.173000
     16 S07          4.1050     0.7920    -1.5670 sy         1 6ND       1.290200
     17 N08          2.4790     1.0420    -1.3970 n7         1 6ND      -0.829100
     18 C09          2.0390     2.0160    -0.4000 c3         1 6ND       0.157500
     19 N12         -1.1670     0.6140     0.9230 nb         1 6ND      -0.656000
     20 N15         -0.2670     2.6290    -0.7130 nb         1 6ND      -0.640000
     21 O17         -4.3100     1.9990     0.0690 o          1 6ND      -0.598100
     22 N18         -3.7810     0.2930     1.4520 ns         1 6ND      -0.549900
     23 C19         -5.1430    -0.0020     1.8350 c3         1 6ND       0.187300
     24 C20         -5.8800    -0.8280     0.8300 cc         1 6ND      -0.194700
     25 S21         -6.3010    -0.2600    -0.7440 ss         1 6ND      -0.133300
     26 N23         -6.9930    -2.6280    -0.1050 nd         1 6ND      -0.647000
     27 O27          4.8650     2.0130    -1.3490 o          1 6ND      -0.603800
     28 O28          4.2700     0.0570    -2.8090 o          1 6ND      -0.603800
     29 F30          5.0860    -2.8170     2.9180 f          1 6ND      -0.112900
     30 H1          -2.2470     3.1420    -0.9860 h4         1 6ND       0.059100
     31 H2          -6.2120    -2.6930     1.8650 h4         1 6ND       0.037100
     32 H3          -6.9770    -1.9680    -3.2150 hc         1 6ND       0.058367
     33 H4          -8.1080    -3.0590    -2.4030 hc         1 6ND       0.058367
     34 H5          -8.5020    -1.3470    -2.6000 hc         1 6ND       0.058367
     35 H6           1.7780     0.3400     2.0190 hc         1 6ND       0.059033
     36 H7           0.5090    -0.8880     1.9980 hc         1 6ND       0.059033
     37 H8           1.6450    -0.7530     0.6520 hc         1 6ND       0.059033
     38 H9           3.6360    -2.0240    -1.2320 ha         1 6ND       0.177000
     39 H10          5.2920     1.2480     1.0390 ha         1 6ND       0.166000
     40 H11          5.6750    -0.2850     2.9400 ha         1 6ND       0.162000
     41 H12          2.0380     1.1620    -2.3050 hn         1 6ND       0.441800
     42 H13          2.1970     3.0450    -0.7290 h1         1 6ND       0.070200
     43 H14          2.6140     1.8690     0.5170 h1         1 6ND       0.070200
     44 H15         -3.0330    -0.2890     1.7980 hn         1 6ND       0.345500
     45 H16         -5.1110    -0.5530     2.7740 h1         1 6ND       0.067200
     46 H17         -5.6720     0.9310     2.0310 h1         1 6ND       0.067200
     47 F29          3.9990    -3.7560     0.6640 f          1 6ND      -0.116900
@<TRIPOS>BOND
     1     1     2 ar  
     2     1    18 1   
     3     1    20 ar  
     4     2     9 1   
     5     2    19 ar  
     6     3     4 ar  
     7     3     5 1   
     8     3    19 ar  
     9     4    20 ar  
    10     4    30 1   
    11     5    21 2   
    12     5    22 1   
    13     6     8 1   
    14     6    25 1   
    15     6    26 2   
    16     7    24 2   
    17     7    26 1   
    18     7    31 1   
    19     8    32 1   
    20     8    33 1   
    21     8    34 1   
    22     9    35 1   
    23     9    36 1   
    24     9    37 1   
    25    10    11 ar  
    26    10    15 ar  
    27    10    29 1   
    28    11    12 ar  
    29    11    47 1   
    30    12    13 ar  
    31    12    38 1   
    32    13    14 ar  
    33    13    16 1   
    34    14    15 ar  
    35    14    39 1   
    36    15    40 1   
    37    16    17 1   
    38    16    27 2   
    39    16    28 2   
    40    17    18 1   
    41    17    41 1   
    42    18    42 1   
    43    18    43 1   
    44    22    23 1   
    45    22    44 1   
    46    23    24 1   
    47    23    45 1   
    48    23    46 1   
    49    24    25 1   
@<TRIPOS>SUBSTRUCTURE
     1 6ND         1 TEMP              0 ****  ****    0 ROOT
