@<TRIPOS>MOLECULE
6ND
   47    49     1     0     0
SMALL
No Charge or Current Charge


@<TRIPOS>ATOM
      1 C10          0.6710     1.7080     0.4360 ca         1 6ND       0.305300
      2 C11         -0.1840     0.5630     0.3580 ca         1 6ND       0.341300
      3 C13         -2.0420     1.9570     0.4270 ca         1 6ND       0.252500
      4 C14         -1.1850     3.0870     0.4960 ca         1 6ND       0.343900
      5 C16         -3.5480     2.1760     0.4300 c          1 6ND       0.508600
      6 C22         -6.9740    -2.6290    -0.3680 cc         1 6ND       0.429700
      7 C24         -6.7910    -1.1670     1.2910 cd         1 6ND       0.283900
      8 C25         -7.3040    -3.9080    -1.0780 c3         1 6ND      -0.131400
      9 C26          0.3500    -0.8600     0.2660 c3         1 6ND      -0.146400
     10 C01          5.1840    -2.3980     1.2950 ca         1 6ND       0.187000
     11 C02          4.5670    -2.4620     0.0320 ca         1 6ND       0.113000
     12 C03          4.3450    -1.2840    -0.7010 ca         1 6ND      -0.031000
     13 C04          4.7410    -0.0370    -0.1690 ca         1 6ND      -0.268500
     14 C05          5.3570     0.0230     1.1000 ca         1 6ND      -0.006000
     15 C06          5.5770    -1.1600     1.8280 ca         1 6ND      -0.155000
     16 S07          4.4250     1.4680    -1.1040 sy         1 6ND       1.148600
     17 N08          2.7720     1.5980    -0.9400 n7         1 6ND      -0.884300
     18 C09          2.2000     1.5780     0.4330 c3         1 6ND       0.157500
     19 N12         -1.5400     0.6780     0.3570 nb         1 6ND      -0.656000
     20 N15          0.1740     2.9780     0.5010 nb         1 6ND      -0.640000
     21 O17         -4.0700     3.2850     0.4890 o          1 6ND      -0.598100
     22 N18         -4.3130     1.0300     0.3600 ns         1 6ND      -0.482900
     23 C19         -5.7680     1.0010     0.3430 c3         1 6ND       0.187300
     24 C20         -6.2770    -0.4070     0.2650 cc         1 6ND      -0.274300
     25 S21         -6.2810    -1.2850    -1.2390 ss         1 6ND       0.011600
     26 N23         -7.1920    -2.4450     0.9270 nd         1 6ND      -0.647000
     27 O27          4.9940     2.6340    -0.4270 o          1 6ND      -0.533000
     28 O28          4.6390     1.1950    -2.5260 o          1 6ND      -0.533000
     29 F30          5.3990    -3.5290     2.0070 f          1 6ND      -0.148000
     30 H1          -1.5890     4.0970     0.5490 h4         1 6ND       0.059100
     31 H2          -6.8980    -0.8470     2.3200 h4         1 6ND       0.037100
     32 H3          -6.4940    -4.1940    -1.7590 hc         1 6ND       0.058367
     33 H4          -7.4540    -4.7290    -0.3670 hc         1 6ND       0.058367
     34 H5          -8.2210    -3.7950    -1.6670 hc         1 6ND       0.058367
     35 H6           0.8420    -1.1540     1.2010 hc         1 6ND       0.059033
     36 H7          -0.4510    -1.5840     0.0720 hc         1 6ND       0.059033
     37 H8           1.0800    -0.9550    -0.5460 hc         1 6ND       0.059033
     38 H9           3.8610    -1.3440    -1.6740 ha         1 6ND       0.159000
     39 H10          5.6630     0.9790     1.5250 ha         1 6ND       0.148000
     40 H11          6.0520    -1.1180     2.8050 ha         1 6ND       0.144000
     41 H12          2.6110     2.5160    -1.3550 hn         1 6ND       0.497000
     42 H13          2.6170     2.3980     1.0350 h1         1 6ND       0.070200
     43 H14          2.4660     0.6500     0.9560 h1         1 6ND       0.070200
     44 H15         -3.8020     0.1550     0.3130 hn         1 6ND       0.345500
     45 H16         -6.1470     1.4840     1.2540 h1         1 6ND       0.067200
     46 H17         -6.1290     1.5740    -0.5220 h1         1 6ND       0.067200
     47 F29          4.1810    -3.6530    -0.4830 f          1 6ND      -0.152000
@<TRIPOS>BOND
     1     1     2 ar  
     2     1    18 1   
     3     1    20 ar  
     4     2     9 1   
     5     2    19 ar  
     6     3     4 ar  
     7     3     5 1   
     8     3    19 ar  
     9     4    20 ar  
    10     4    30 1   
    11     5    21 2   
    12     5    22 1   
    13     6     8 1   
    14     6    25 1   
    15     6    26 2   
    16     7    24 2   
    17     7    26 1   
    18     7    31 1   
    19     8    32 1   
    20     8    33 1   
    21     8    34 1   
    22     9    35 1   
    23     9    36 1   
    24     9    37 1   
    25    10    11 ar  
    26    10    15 ar  
    27    10    29 1   
    28    11    12 ar  
    29    11    47 1   
    30    12    13 ar  
    31    12    38 1   
    32    13    14 ar  
    33    13    16 1   
    34    14    15 ar  
    35    14    39 1   
    36    15    40 1   
    37    16    17 1   
    38    16    27 2   
    39    16    28 2   
    40    17    18 1   
    41    17    41 1   
    42    18    42 1   
    43    18    43 1   
    44    22    23 1   
    45    22    44 1   
    46    23    24 1   
    47    23    45 1   
    48    23    46 1   
    49    24    25 1   
@<TRIPOS>SUBSTRUCTURE
     1 6ND         1 TEMP              0 ****  ****    0 ROOT
