@<TRIPOS>MOLECULE
6NE
   46    49     1     0     0
SMALL
abcg2


@<TRIPOS>ATOM
      1 C6           2.6530    -0.1460    -0.0090 ca         1 6NE      -0.001000
      2 C8           5.0070     0.1570     0.5170 ca         1 6NE      -0.032000
      3 N5           0.1860    -0.1010    -0.3840 na         1 6NE      -0.274500
      4 C9           5.3370     0.0780    -0.8610 ca         1 6NE      -0.037000
      5 C5          -4.2180     1.1730    -0.1110 c6         1 6NE       0.169300
      6 C4          -5.1450    -0.0280     0.0880 c6         1 6NE       0.143300
      7 O4          -6.3870     0.2750    -0.4980 oh         1 6NE      -0.719000
      8 O5          -2.9390     0.8820     0.4160 os         1 6NE      -0.418000
      9 C1          -2.3010    -0.2000    -0.2210 c6         1 6NE       0.154000
     10 C2          -3.1060    -1.4800    -0.0080 c6         1 6NE       0.116300
     11 O2          -2.4410    -2.5180    -0.6850 oh         1 6NE      -0.718000
     12 C3          -4.5190    -1.2660    -0.5410 c6         1 6NE       0.099300
     13 O3          -5.3610    -2.3630    -0.2580 oh         1 6NE      -0.667000
     14 C18         -0.9270    -0.3230     0.3420 cc         1 6NE       0.416800
     15 N2          -0.6280    -0.6460     1.5760 nd         1 6NE      -0.658000
     16 C19          0.7290    -0.6230     1.6460 cd         1 6NE       0.251900
     17 C17          1.2720    -0.2820     0.4290 cc         1 6NE      -0.151000
     18 C7           3.6570     0.0490     0.9120 ca         1 6NE      -0.081000
     19 C12          6.0460     0.3520     1.4590 ca         1 6NE      -0.097000
     20 C13          7.3470     0.4590     1.0480 ca         1 6NE      -0.106000
     21 C14          7.6730     0.3780    -0.3230 ca         1 6NE      -0.105000
     22 C15          6.6900     0.1920    -1.2560 ca         1 6NE      -0.097000
     23 C10          4.2920    -0.1150    -1.7940 ca         1 6NE      -0.091000
     24 C11          2.9940    -0.2280    -1.3840 ca         1 6NE      -0.110000
     25 H1           0.2030     0.1950    -1.3480 hn         1 6NE       0.354000
     26 H2          -4.2250     4.2710     0.7330 ho         1 6NE       0.505000
     27 H6          -5.2530    -0.2040     1.1710 h1         1 6NE       0.059700
     28 H7          -6.9510    -0.5020    -0.4190 ho         1 6NE       0.523000
     29 H8          -2.2190    -0.0150    -1.3050 h1         1 6NE       0.044700
     30 H9          -3.1540    -1.6750     1.0720 h1         1 6NE       0.081700
     31 H10         -2.6720    -3.3560    -0.2740 ho         1 6NE       0.515000
     32 H11         -4.4540    -1.0990    -1.6270 h1         1 6NE       0.050700
     33 H12         -5.2230    -3.0420    -0.9240 ho         1 6NE       0.453000
     34 H14          1.2560    -0.8720     2.5550 h4         1 6NE       0.038100
     35 H15          3.4210     0.1350     1.9660 ha         1 6NE       0.120000
     36 H16          5.7980     0.4140     2.5110 ha         1 6NE       0.115000
     37 H17          8.1340     0.6070     1.7760 ha         1 6NE       0.114000
     38 H18          8.7070     0.4640    -0.6310 ha         1 6NE       0.114000
     39 H19          6.9360     0.1300    -2.3090 ha         1 6NE       0.113000
     40 H20          4.5310    -0.1820    -2.8490 ha         1 6NE       0.114000
     41 H21          2.2250    -0.3980    -2.1270 ha         1 6NE       0.105000
     42 H5          -4.1400     1.3770    -1.1910 h1         1 6NE       0.057700
     43 C16         -4.7350     2.4110     0.5900 c3         1 6NE       0.172600
     44 H3          -4.7690     2.2210     1.6710 h1         1 6NE       0.038200
     45 O6          -3.8920     3.4940     0.2760 oh         1 6NE      -0.712000
     46 H4          -5.7640     2.5900     0.2600 h1         1 6NE       0.038200
@<TRIPOS>BOND
     1     1    17 1   
     2     1    18 ar  
     3     1    24 ar  
     4     2     4 ar  
     5     2    18 ar  
     6     2    19 ar  
     7     3    14 1   
     8     3    17 1   
     9     3    25 1   
    10     4    22 ar  
    11     4    23 ar  
    12     5     6 1   
    13     5     8 1   
    14     5    42 1   
    15     5    43 1   
    16     6     7 1   
    17     6    12 1   
    18     6    27 1   
    19     7    28 1   
    20     8     9 1   
    21     9    10 1   
    22     9    14 1   
    23     9    29 1   
    24    10    11 1   
    25    10    12 1   
    26    10    30 1   
    27    11    31 1   
    28    12    13 1   
    29    12    32 1   
    30    13    33 1   
    31    14    15 2   
    32    15    16 1   
    33    16    17 2   
    34    16    34 1   
    35    18    35 1   
    36    19    20 ar  
    37    19    36 1   
    38    20    21 ar  
    39    20    37 1   
    40    21    22 ar  
    41    21    38 1   
    42    22    39 1   
    43    23    24 ar  
    44    23    40 1   
    45    24    41 1   
    46    26    45 1   
    47    43    44 1   
    48    43    45 1   
    49    43    46 1   
@<TRIPOS>SUBSTRUCTURE
     1 6NE         1 TEMP              0 ****  ****    0 ROOT
