@<TRIPOS>MOLECULE
6NE
   46    49     1     0     0
SMALL
No Charge or Current Charge


@<TRIPOS>ATOM
      1 C6           2.5540    -0.1440    -0.0440 ca         1 6NE      -0.001000
      2 C8           4.9830    -0.2900     0.2590 ca         1 6NE      -0.032000
      3 N5           0.0050    -0.1680    -0.3170 na         1 6NE      -0.274500
      4 C9           5.1180     1.0650    -0.1100 ca         1 6NE      -0.037000
      5 C5          -4.1040     0.8740    -0.8790 c6         1 6NE       0.169300
      6 C4          -5.0270     0.4100     0.2910 c6         1 6NE       0.143300
      7 O4          -6.4200     0.6500     0.0210 oh         1 6NE      -0.719000
      8 O5          -2.7220     0.5550    -0.5640 os         1 6NE      -0.418000
      9 C1          -2.4510    -0.8620    -0.3860 c6         1 6NE       0.154000
     10 C2          -3.3050    -1.4060     0.8080 c6         1 6NE       0.116300
     11 O2          -3.1130    -2.8250     1.0080 oh         1 6NE      -0.718000
     12 C3          -4.8090    -1.1090     0.5450 c6         1 6NE       0.099300
     13 O3          -5.6090    -1.5610     1.6510 oh         1 6NE      -0.667000
     14 C18         -0.9700    -1.1230    -0.1470 cc         1 6NE       0.416800
     15 N2          -0.4200    -2.2720     0.2450 nd         1 6NE      -0.658000
     16 C19          0.9430    -2.0480     0.3280 cd         1 6NE       0.251900
     17 C17          1.2160    -0.7480    -0.0170 cc         1 6NE      -0.151000
     18 C7           3.7090    -0.8880     0.2900 ca         1 6NE      -0.081000
     19 C12          6.1270    -1.0400     0.5940 ca         1 6NE      -0.097000
     20 C13          7.3990    -0.4410     0.5610 ca         1 6NE      -0.106000
     21 C14          7.5310     0.9090     0.1940 ca         1 6NE      -0.105000
     22 C15          6.3920     1.6620    -0.1420 ca         1 6NE      -0.097000
     23 C10          3.9750     1.8110    -0.4440 ca         1 6NE      -0.091000
     24 C11          2.7050     1.2100    -0.4110 ca         1 6NE      -0.110000
     25 H1          -0.1690     0.7850    -0.6080 hn         1 6NE       0.354000
     26 H2          -3.4110     3.8520    -2.2330 ho         1 6NE       0.505000
     27 H6          -4.7260     0.9570     1.1980 h1         1 6NE       0.059700
     28 H7          -6.8980     0.0330     0.6280 ho         1 6NE       0.523000
     29 H8          -2.7550    -1.3820    -1.3050 h1         1 6NE       0.044700
     30 H9          -2.9960    -0.8570     1.7120 h1         1 6NE       0.081700
     31 H10         -2.1370    -2.9830     0.8920 ho         1 6NE       0.515000
     32 H11         -5.1030    -1.6530    -0.3660 h1         1 6NE       0.050700
     33 H12         -5.1950    -2.4120     1.9280 ho         1 6NE       0.453000
     34 H14          1.6240    -2.8330     0.6300 h4         1 6NE       0.038100
     35 H15          3.6280    -1.9320     0.5770 ha         1 6NE       0.120000
     36 H16          6.0340    -2.0860     0.8800 ha         1 6NE       0.115000
     37 H17          8.2810    -1.0230     0.8210 ha         1 6NE       0.114000
     38 H18          8.5150     1.3720     0.1690 ha         1 6NE       0.114000
     39 H19          6.5020     2.7060    -0.4250 ha         1 6NE       0.113000
     40 H20          4.0670     2.8560    -0.7300 ha         1 6NE       0.114000
     41 H21          1.8360     1.8080    -0.6730 ha         1 6NE       0.105000
     42 H5          -4.3880     0.3470    -1.8010 h1         1 6NE       0.057700
     43 C16         -4.2040     2.4120    -1.1460 c3         1 6NE       0.172600
     44 H3          -4.0010     2.9350    -0.2010 h1         1 6NE       0.038200
     45 O6          -3.3000     2.8740    -2.1710 oh         1 6NE      -0.712000
     46 H4          -5.2400     2.6440    -1.4290 h1         1 6NE       0.038200
@<TRIPOS>BOND
     1     1    17 1   
     2     1    18 ar  
     3     1    24 ar  
     4     2     4 ar  
     5     2    18 ar  
     6     2    19 ar  
     7     3    14 1   
     8     3    17 1   
     9     3    25 1   
    10     4    22 ar  
    11     4    23 ar  
    12     5     6 1   
    13     5     8 1   
    14     5    42 1   
    15     5    43 1   
    16     6     7 1   
    17     6    12 1   
    18     6    27 1   
    19     7    28 1   
    20     8     9 1   
    21     9    10 1   
    22     9    14 1   
    23     9    29 1   
    24    10    11 1   
    25    10    12 1   
    26    10    30 1   
    27    11    31 1   
    28    12    13 1   
    29    12    32 1   
    30    13    33 1   
    31    14    15 2   
    32    15    16 1   
    33    16    17 2   
    34    16    34 1   
    35    18    35 1   
    36    19    20 ar  
    37    19    36 1   
    38    20    21 ar  
    39    20    37 1   
    40    21    22 ar  
    41    21    38 1   
    42    22    39 1   
    43    23    24 ar  
    44    23    40 1   
    45    24    41 1   
    46    26    45 1   
    47    43    44 1   
    48    43    45 1   
    49    43    46 1   
@<TRIPOS>SUBSTRUCTURE
     1 6NE         1 TEMP              0 ****  ****    0 ROOT
