@<TRIPOS>MOLECULE
6NF
   39    41     1     0     0
SMALL
abcg2


@<TRIPOS>ATOM
      1 C1          -4.7300    -0.6800    -0.0040 ca         1 6NF      -0.155500
      2 C2          -5.9510    -0.0310    -0.0730 ca         1 6NF       0.338900
      3 N3          -6.0840     1.2870    -0.1650 nb         1 6NF      -0.659000
      4 C4          -4.9670     2.0070    -0.1870 ca         1 6NF       0.338900
      5 C5          -3.6980     1.4600    -0.1180 ca         1 6NF      -0.155500
      6 C6          -3.5580     0.0760    -0.0230 ca         1 6NF       0.025000
      7 C7          -2.2340    -0.5260     0.0450 cc         1 6NF      -0.086000
      8 C8          -0.9880     0.0390    -0.1570 cd         1 6NF      -0.244000
      9 C9          -0.0810    -1.0240     0.0300 cd         1 6NF       0.478900
     10 N10         -0.7190    -2.1460     0.3310 nc         1 6NF      -0.570800
     11 N11         -2.0140    -1.8220     0.3240 na         1 6NF       0.004800
     12 N12          1.2890    -1.0050    -0.1110 nu         1 6NF      -0.876100
     13 C13          1.9720     0.2640     0.0520 c3         1 6NF       0.200800
     14 C14          3.4540     0.1750    -0.2880 c6         1 6NF      -0.069700
     15 C15          4.0730     1.5730    -0.2410 c6         1 6NF      -0.072400
     16 C16          5.5640     1.5560    -0.5540 c6         1 6NF      -0.072900
     17 C17          6.3170     0.6150     0.3800 c6         1 6NF      -0.075400
     18 C18          5.7150    -0.7850     0.3340 c6         1 6NF      -0.072900
     19 C19          4.2210    -0.7670     0.6420 c6         1 6NF      -0.072400
     20 H1          -4.7180    -1.7600     0.0530 ha         1 6NF       0.123000
     21 H2          -6.8670    -0.6120    -0.0580 h4         1 6NF       0.021600
     22 H4          -5.0840     3.0820    -0.2610 h4         1 6NF       0.021600
     23 H5          -2.8360     2.1130    -0.1320 ha         1 6NF       0.123000
     24 H8          -0.7700     1.0630    -0.4090 ha         1 6NF       0.146000
     25 H11         -2.6900    -2.5270     0.5690 hn         1 6NF       0.373000
     26 H12          1.7300    -1.7690     0.3800 hn         1 6NF       0.462000
     27 H131         1.5080     0.9900    -0.6200 h1         1 6NF       0.035200
     28 H132         1.8560     0.6640     1.0710 h1         1 6NF       0.035200
     29 H14          3.5390    -0.2040    -1.3150 hc         1 6NF       0.063700
     30 H151         3.5500     2.2340    -0.9390 hc         1 6NF       0.038200
     31 H152         3.9170     1.9940     0.7600 hc         1 6NF       0.038200
     32 H191         4.0680    -0.4400     1.6790 hc         1 6NF       0.038200
     33 H192         3.8350    -1.7880     0.5760 hc         1 6NF       0.038200
     34 H161         5.7120     1.2290    -1.5890 hc         1 6NF       0.040200
     35 H162         5.9710     2.5680    -0.4870 hc         1 6NF       0.040200
     36 H171         7.3760     0.5790     0.1110 hc         1 6NF       0.039200
     37 H172         6.2690     1.0000     1.4040 hc         1 6NF       0.039200
     38 H181         5.8750    -1.2100    -0.6630 hc         1 6NF       0.040200
     39 H182         6.2300    -1.4450     1.0370 hc         1 6NF       0.040200
@<TRIPOS>BOND
     1     1     2 ar  
     2     1     6 ar  
     3     1    20 1   
     4     2     3 ar  
     5     2    21 1   
     6     3     4 ar  
     7     4     5 ar  
     8     4    22 1   
     9     5     6 ar  
    10     5    23 1   
    11     6     7 1   
    12     7     8 2   
    13     7    11 1   
    14     8     9 1   
    15     8    24 1   
    16     9    10 2   
    17     9    12 1   
    18    10    11 1   
    19    11    25 1   
    20    12    13 1   
    21    12    26 1   
    22    13    14 1   
    23    13    27 1   
    24    13    28 1   
    25    14    15 1   
    26    14    19 1   
    27    14    29 1   
    28    15    16 1   
    29    15    30 1   
    30    15    31 1   
    31    16    17 1   
    32    16    34 1   
    33    16    35 1   
    34    17    18 1   
    35    17    36 1   
    36    17    37 1   
    37    18    19 1   
    38    18    38 1   
    39    18    39 1   
    40    19    32 1   
    41    19    33 1   
@<TRIPOS>SUBSTRUCTURE
     1 6NF         1 TEMP              0 ****  ****    0 ROOT
