@<TRIPOS>MOLECULE
6NF
   39    41     1     0     0
SMALL
No Charge or Current Charge


@<TRIPOS>ATOM
      1 C1          -4.7680    -0.7130     0.0980 ca         1 6NF      -0.155500
      2 C2          -6.0000    -0.0510     0.2220 ca         1 6NF       0.338900
      3 N3          -6.1110     1.2950     0.2930 nb         1 6NF      -0.659000
      4 C4          -4.9700     2.0190     0.2400 ca         1 6NF       0.338900
      5 C5          -3.6980     1.4380     0.1170 ca         1 6NF      -0.155500
      6 C6          -3.5760     0.0360     0.0420 ca         1 6NF       0.025000
      7 C7          -2.2750    -0.6310    -0.0870 cc         1 6NF      -0.086000
      8 C8          -1.0610    -0.0070    -0.1520 cd         1 6NF      -0.244000
      9 C9          -0.1140    -1.0360    -0.2710 cd         1 6NF       0.478900
     10 N10         -0.6130    -2.2460    -0.2870 nc         1 6NF      -0.570800
     11 N11         -1.9790    -1.9930    -0.1720 na         1 6NF       0.004800
     12 N12          1.2240    -0.8680    -0.3650 nu         1 6NF      -0.876100
     13 C13          1.9550     0.4010    -0.2810 c3         1 6NF       0.200800
     14 C14          3.4970     0.1990    -0.3660 c6         1 6NF      -0.069700
     15 C15          4.2240     1.5640    -0.5340 c6         1 6NF      -0.072400
     16 C16          5.7590     1.3860    -0.6300 c6         1 6NF      -0.072900
     17 C17          6.3130     0.6240     0.5980 c6         1 6NF      -0.075400
     18 C18          5.6000    -0.7390     0.7750 c6         1 6NF      -0.072900
     19 C19          4.0640    -0.5610     0.8710 c6         1 6NF      -0.072400
     20 H1          -4.7550    -1.7970     0.0470 ha         1 6NF       0.123000
     21 H2          -6.9300    -0.6160     0.2660 h4         1 6NF       0.021600
     22 H4          -5.0810     3.1020     0.2990 h4         1 6NF       0.021600
     23 H5          -2.8290     2.0860     0.0810 ha         1 6NF       0.123000
     24 H8          -0.8530     1.0540    -0.1200 ha         1 6NF       0.146000
     25 H11         -2.6570    -2.7530    -0.1540 hn         1 6NF       0.373000
     26 H12          1.7510    -1.7360    -0.3990 hn         1 6NF       0.462000
     27 H131         1.6410     1.0510    -1.1090 h1         1 6NF       0.035200
     28 H132         1.7130     0.9160     0.6590 h1         1 6NF       0.035200
     29 H14          3.6850    -0.4000    -1.2690 hc         1 6NF       0.063700
     30 H151         3.8590     2.0750    -1.4350 hc         1 6NF       0.038200
     31 H152         3.9830     2.2210     0.3140 hc         1 6NF       0.038200
     32 H191         3.8140    -0.0130     1.7900 hc         1 6NF       0.038200
     33 H192         3.5930    -1.5490     0.9610 hc         1 6NF       0.038200
     34 H161         6.0120     0.8400    -1.5490 hc         1 6NF       0.040200
     35 H162         6.2440     2.3680    -0.7080 hc         1 6NF       0.040200
     36 H171         7.3940     0.4670     0.4850 hc         1 6NF       0.039200
     37 H172         6.1780     1.2320     1.5030 hc         1 6NF       0.039200
     38 H181         5.8440    -1.3970    -0.0700 hc         1 6NF       0.040200
     39 H182         5.9740    -1.2400     1.6790 hc         1 6NF       0.040200
@<TRIPOS>BOND
     1     1     2 ar  
     2     1     6 ar  
     3     1    20 1   
     4     2     3 ar  
     5     2    21 1   
     6     3     4 ar  
     7     4     5 ar  
     8     4    22 1   
     9     5     6 ar  
    10     5    23 1   
    11     6     7 1   
    12     7     8 2   
    13     7    11 1   
    14     8     9 1   
    15     8    24 1   
    16     9    10 2   
    17     9    12 1   
    18    10    11 1   
    19    11    25 1   
    20    12    13 1   
    21    12    26 1   
    22    13    14 1   
    23    13    27 1   
    24    13    28 1   
    25    14    15 1   
    26    14    19 1   
    27    14    29 1   
    28    15    16 1   
    29    15    30 1   
    30    15    31 1   
    31    16    17 1   
    32    16    34 1   
    33    16    35 1   
    34    17    18 1   
    35    17    36 1   
    36    17    37 1   
    37    18    19 1   
    38    18    38 1   
    39    18    39 1   
    40    19    32 1   
    41    19    33 1   
@<TRIPOS>SUBSTRUCTURE
     1 6NF         1 TEMP              0 ****  ****    0 ROOT
