@<TRIPOS>MOLECULE
6NG
   68    68     1     0     0
SMALL
No Charge or Current Charge


@<TRIPOS>ATOM
      1 C1           6.2180    -1.9140     0.1620 ca         1 6NG      -0.085500
      2 C2           7.3400    -2.4240    -0.5160 ca         1 6NG      -0.122000
      3 C3           7.2290    -3.6010    -1.2740 ca         1 6NG      -0.112000
      4 C9           1.9370    -0.5390     0.4170 c          1 6NG       0.641100
      5 C12          0.2000     1.1180    -0.4190 c3         1 6NG      -0.272000
      6 C20         -4.9900     4.0530     1.6950 c3         1 6NG      -0.084100
      7 C21         -5.5010     5.5340    -0.3090 c3         1 6NG      -0.084100
      8 C22         -2.8310     1.9240    -0.4770 c          1 6NG       0.564100
      9 C27         -2.1160    -1.6050     1.5230 c3         1 6NG      -0.096100
     10 N16         -0.8870     3.5750    -0.0850 n7         1 6NG      -0.956500
     11 C17         -2.3070     3.2280     0.2260 c3         1 6NG       0.175500
     12 C25         -3.7080    -0.4000    -0.0770 c3         1 6NG       0.106000
     13 C26         -3.5910    -1.4930     1.0290 c3         1 6NG      -0.064700
     14 C28         -4.2400    -2.8790     0.6210 c3         1 6NG      -0.039000
     15 C29         -4.1880    -3.8800     1.8130 c3         1 6NG      -0.083433
     16 C30         -5.7410    -2.6880     0.2530 c3         1 6NG      -0.083433
     17 C31         -3.5150    -3.5230    -0.5940 c3         1 6NG      -0.083433
     18 C18         -3.1950     4.4530    -0.1260 c3         1 6NG      -0.075400
     19 P13          0.4200     2.7400     0.4620 p5         1 6NG       1.346300
     20 C6           4.9790    -2.5800     0.0860 ca         1 6NG      -0.083300
     21 C5           4.8730    -3.7590    -0.6790 ca         1 6NG      -0.085500
     22 C4           5.9950    -4.2680    -1.3560 ca         1 6NG      -0.122000
     23 O14          0.3160     2.6200     1.9420 o          1 6NG      -0.812000
     24 O15          1.6270     3.4470    -0.0470 o          1 6NG      -0.812000
     25 N11          1.4130     0.2660    -0.5630 ns         1 6NG      -0.438900
     26 O8           3.0650    -1.1340    -0.0590 os         1 6NG      -0.466100
     27 O10          1.4640    -0.6970     1.5320 o          1 6NG      -0.565000
     28 H1           6.3120    -1.0000     0.7450 ha         1 6NG       0.119500
     29 H2           8.2940    -1.9050    -0.4530 ha         1 6NG       0.105500
     30 H3           8.0970    -3.9950    -1.7990 ha         1 6NG       0.101000
     31 H4           3.1140    -2.8600     1.1270 h1         1 6NG       0.050200
     32 H5           4.0910    -1.5050     1.7290 h1         1 6NG       0.050200
     33 H6          -0.5580     0.5540     0.1340 h1         1 6NG       0.055700
     34 H7          -0.1860     1.3390    -1.4200 h1         1 6NG       0.055700
     35 H8          -5.0960     3.4380    -0.3610 hc         1 6NG       0.041700
     36 H9          -4.5750     4.8610     2.3090 hc         1 6NG       0.026867
     37 H10         -6.0690     4.0010     1.8830 hc         1 6NG       0.026867
     38 H11         -4.5540     3.1040     2.0280 hc         1 6NG       0.026867
     39 H12         -5.1770     6.4450     0.2090 hc         1 6NG       0.026867
     40 H13         -5.3510     5.6790    -1.3860 hc         1 6NG       0.026867
     41 H14         -6.5760     5.4040    -0.1350 hc         1 6NG       0.026867
     42 H17         -1.4470    -1.9230     0.7140 hc         1 6NG       0.043700
     43 H18         -0.7420     3.5440    -1.0910 hn         1 6NG       0.452000
     44 H19         -2.3960     3.0650     1.3090 h1         1 6NG       0.078700
     45 H21         -4.7510    -0.2820    -0.3920 h1         1 6NG       0.043200
     46 H22         -3.1180    -0.7030    -0.9510 h1         1 6NG       0.043200
     47 H23         -4.1680    -1.1210     1.8850 hc         1 6NG       0.042700
     48 H24         -4.6140    -3.4350     2.7200 hc         1 6NG       0.030700
     49 H25         -4.7590    -4.7890     1.5870 hc         1 6NG       0.030700
     50 H26         -3.1630    -4.1970     2.0330 hc         1 6NG       0.030700
     51 H27         -5.8640    -2.1220    -0.6780 hc         1 6NG       0.030700
     52 H28         -6.2350    -3.6560     0.1020 hc         1 6NG       0.030700
     53 H29         -6.2780    -2.1590     1.0500 hc         1 6NG       0.030700
     54 H30         -2.4610    -3.7260    -0.3720 hc         1 6NG       0.030700
     55 H31         -3.9830    -4.4780    -0.8620 hc         1 6NG       0.030700
     56 H32         -3.5590    -2.8770    -1.4790 hc         1 6NG       0.030700
     57 H33         -3.0820     4.6660    -1.1960 hc         1 6NG       0.053700
     58 H34         -2.8080     5.3310     0.4060 hc         1 6NG       0.053700
     59 H35          3.9200    -4.2800    -0.7490 ha         1 6NG       0.119500
     60 H36          5.9070    -5.1790    -1.9440 ha         1 6NG       0.105500
     61 H38          1.9430     0.2940    -1.4270 hn         1 6NG       0.316500
     62 C7           3.7640    -2.0290     0.8210 c3         1 6NG       0.230900
     63 N24         -3.2430     0.9150     0.3700 ns         1 6NG      -0.508900
     64 C19         -4.7120     4.3040     0.1930 c3         1 6NG      -0.064700
     65 H15         -1.7490    -0.6420     1.8940 hc         1 6NG       0.043700
     66 H20         -3.1850     1.0910     1.3660 hn         1 6NG       0.322500
     67 O23         -2.8650     1.7940    -1.6960 o          1 6NG      -0.638100
     68 H16         -2.0140    -2.3110     2.3530 hc         1 6NG       0.043700
@<TRIPOS>BOND
     1     1     2 ar  
     2     1    20 ar  
     3     1    28 1   
     4     2     3 ar  
     5     2    29 1   
     6     3    22 ar  
     7     3    30 1   
     8     4    25 1   
     9     4    26 1   
    10     4    27 2   
    11     5    19 1   
    12     5    25 1   
    13     5    33 1   
    14     5    34 1   
    15     6    36 1   
    16     6    37 1   
    17     6    38 1   
    18     6    64 1   
    19     7    39 1   
    20     7    40 1   
    21     7    41 1   
    22     7    64 1   
    23     8    11 1   
    24     8    63 1   
    25     8    67 2   
    26     9    13 1   
    27     9    42 1   
    28     9    65 1   
    29     9    68 1   
    30    10    11 1   
    31    10    19 1   
    32    10    43 1   
    33    11    18 1   
    34    11    44 1   
    35    12    13 1   
    36    12    45 1   
    37    12    46 1   
    38    12    63 1   
    39    13    14 1   
    40    13    47 1   
    41    14    15 1   
    42    14    16 1   
    43    14    17 1   
    44    15    48 1   
    45    15    49 1   
    46    15    50 1   
    47    16    51 1   
    48    16    52 1   
    49    16    53 1   
    50    17    54 1   
    51    17    55 1   
    52    17    56 1   
    53    18    57 1   
    54    18    58 1   
    55    18    64 1   
    56    19    23 1   
    57    19    24 1   
    58    20    21 ar  
    59    20    62 1   
    60    21    22 ar  
    61    21    59 1   
    62    22    60 1   
    63    25    61 1   
    64    26    62 1   
    65    31    62 1   
    66    32    62 1   
    67    35    64 1   
    68    63    66 1   
@<TRIPOS>SUBSTRUCTURE
     1 6NG         1 TEMP              0 ****  ****    0 ROOT
