@<TRIPOS>MOLECULE
6NG
   68    68     1     0     0
SMALL
abcg2


@<TRIPOS>ATOM
      1 C1           5.7210    -0.8630     1.3170 ca         1 6NG      -0.085500
      2 C2           7.0910    -1.0640     1.2450 ca         1 6NG      -0.122000
      3 C3           7.5930    -2.2920     0.8310 ca         1 6NG      -0.112000
      4 C9           1.7010    -0.6620    -0.3290 c          1 6NG       0.641100
      5 C12          0.2840     0.6360    -1.8180 c3         1 6NG      -0.272000
      6 C20         -3.1380     3.1370     2.5150 c3         1 6NG      -0.084100
      7 C21         -4.3940     5.1120     1.6310 c3         1 6NG      -0.084100
      8 C22         -2.9980     1.7440    -0.8700 c          1 6NG       0.564100
      9 C27         -2.5060    -2.3250    -0.1430 c3         1 6NG      -0.096100
     10 N16         -1.0220     3.0940    -1.3650 n7         1 6NG      -0.956500
     11 C17         -1.9800     2.7480    -0.3380 c3         1 6NG       0.175500
     12 C25         -4.0890    -0.4260    -0.5230 c3         1 6NG       0.106000
     13 C26         -3.8350    -1.7010     0.2840 c3         1 6NG      -0.064700
     14 C28         -5.0380    -2.6820     0.2200 c3         1 6NG      -0.039000
     15 C29         -4.6970    -3.9740     0.9680 c3         1 6NG      -0.083433
     16 C30         -6.2590    -2.0580     0.9050 c3         1 6NG      -0.083433
     17 C31         -5.4100    -3.0320    -1.2230 c3         1 6NG      -0.083433
     18 C18         -2.7000     4.0000     0.1700 c3         1 6NG      -0.075400
     19 P13          0.5430     2.4230    -1.3980 p5         1 6NG       1.346300
     20 C6           4.8360    -1.8840     0.9790 ca         1 6NG      -0.083300
     21 C5           5.3470    -3.1100     0.5640 ca         1 6NG      -0.085500
     22 C4           6.7190    -3.3150     0.4910 ca         1 6NG      -0.122000
     23 O14          1.0990     2.4660     0.0020 o          1 6NG      -0.812000
     24 O15          1.2800     3.0730    -2.5430 o          1 6NG      -0.812000
     25 N11          1.4750    -0.1410    -1.5490 ns         1 6NG      -0.438900
     26 O8           2.9890    -1.0200    -0.1950 os         1 6NG      -0.466100
     27 O10          0.8650    -0.8400     0.5330 o          1 6NG      -0.565000
     28 H1           5.3340     0.0940     1.6480 ha         1 6NG       0.119500
     29 H2           7.7690    -0.2640     1.5150 ha         1 6NG       0.105500
     30 H3           8.6620    -2.4510     0.7780 ha         1 6NG       0.101000
     31 H4           2.8210    -2.5950     1.1530 h1         1 6NG       0.050200
     32 H5           3.1000    -1.0080     1.8790 h1         1 6NG       0.050200
     33 H6          -0.5370     0.2200    -1.2360 h1         1 6NG       0.055700
     34 H7           0.0130     0.5210    -2.8700 h1         1 6NG       0.055700
     35 H8          -4.5280     3.1200     0.8860 hc         1 6NG       0.041700
     36 H9          -2.3030     3.7330     2.8920 hc         1 6NG       0.026867
     37 H10         -3.8790     3.0610     3.3130 hc         1 6NG       0.026867
     38 H11         -2.7650     2.1290     2.3310 hc         1 6NG       0.026867
     39 H12         -3.6590     5.8040     2.0500 hc         1 6NG       0.026867
     40 H13         -4.8400     5.5910     0.7570 hc         1 6NG       0.026867
     41 H14         -5.1810     4.9760     2.3740 hc         1 6NG       0.026867
     42 H17         -2.5490    -2.6920    -1.1710 hc         1 6NG       0.043700
     43 H18         -1.4470     3.2940    -2.2600 hn         1 6NG       0.452000
     44 H19         -1.4200     2.3050     0.4910 h1         1 6NG       0.078700
     45 H21         -5.0980    -0.0460    -0.3480 h1         1 6NG       0.043200
     46 H22         -4.0090    -0.6400    -1.5910 h1         1 6NG       0.043200
     47 H23         -3.7410    -1.4070     1.3390 hc         1 6NG       0.042700
     48 H24         -4.3680    -3.7730     1.9910 hc         1 6NG       0.030700
     49 H25         -5.5780    -4.6170     1.0250 hc         1 6NG       0.030700
     50 H26         -3.9130    -4.5480     0.4720 hc         1 6NG       0.030700
     51 H27         -6.6310    -1.1810     0.3750 hc         1 6NG       0.030700
     52 H28         -7.0800    -2.7770     0.9470 hc         1 6NG       0.030700
     53 H29         -6.0300    -1.7580     1.9310 hc         1 6NG       0.030700
     54 H30         -4.5720    -3.4660    -1.7710 hc         1 6NG       0.030700
     55 H31         -6.2210    -3.7630    -1.2370 hc         1 6NG       0.030700
     56 H32         -5.7570    -2.1590    -1.7800 hc         1 6NG       0.030700
     57 H33         -3.1750     4.4940    -0.6840 hc         1 6NG       0.053700
     58 H34         -1.9300     4.6860     0.5370 hc         1 6NG       0.053700
     59 H35          4.6680    -3.9130     0.3010 ha         1 6NG       0.119500
     60 H36          7.1030    -4.2750     0.1700 ha         1 6NG       0.105500
     61 H38          2.2820     0.0560    -2.1210 hn         1 6NG       0.316500
     62 C7           3.3570    -1.6510     1.0340 c3         1 6NG       0.230900
     63 N24         -3.1270     0.6040    -0.1790 ns         1 6NG      -0.508900
     64 C19         -3.7400     3.7810     1.2700 c3         1 6NG      -0.064700
     65 H15         -1.6900    -1.6040    -0.0930 hc         1 6NG       0.043700
     66 H20         -2.5760     0.4790     0.6550 hn         1 6NG       0.322500
     67 O23         -3.6540     1.9820    -1.8780 o          1 6NG      -0.638100
     68 H16         -2.2200    -3.1580     0.4970 hc         1 6NG       0.043700
@<TRIPOS>BOND
     1     1     2 ar  
     2     1    20 ar  
     3     1    28 1   
     4     2     3 ar  
     5     2    29 1   
     6     3    22 ar  
     7     3    30 1   
     8     4    25 1   
     9     4    26 1   
    10     4    27 2   
    11     5    19 1   
    12     5    25 1   
    13     5    33 1   
    14     5    34 1   
    15     6    36 1   
    16     6    37 1   
    17     6    38 1   
    18     6    64 1   
    19     7    39 1   
    20     7    40 1   
    21     7    41 1   
    22     7    64 1   
    23     8    11 1   
    24     8    63 1   
    25     8    67 2   
    26     9    13 1   
    27     9    42 1   
    28     9    65 1   
    29     9    68 1   
    30    10    11 1   
    31    10    19 1   
    32    10    43 1   
    33    11    18 1   
    34    11    44 1   
    35    12    13 1   
    36    12    45 1   
    37    12    46 1   
    38    12    63 1   
    39    13    14 1   
    40    13    47 1   
    41    14    15 1   
    42    14    16 1   
    43    14    17 1   
    44    15    48 1   
    45    15    49 1   
    46    15    50 1   
    47    16    51 1   
    48    16    52 1   
    49    16    53 1   
    50    17    54 1   
    51    17    55 1   
    52    17    56 1   
    53    18    57 1   
    54    18    58 1   
    55    18    64 1   
    56    19    23 1   
    57    19    24 1   
    58    20    21 ar  
    59    20    62 1   
    60    21    22 ar  
    61    21    59 1   
    62    22    60 1   
    63    25    61 1   
    64    26    62 1   
    65    31    62 1   
    66    32    62 1   
    67    35    64 1   
    68    63    66 1   
@<TRIPOS>SUBSTRUCTURE
     1 6NG         1 TEMP              0 ****  ****    0 ROOT
