@<TRIPOS>MOLECULE
6NH
   38    41     1     0     0
SMALL
bcc


@<TRIPOS>ATOM
      1 C1           4.8020    -0.3870     0.0300 ca         1 6NH      -0.167900
      2 C2           4.9810     1.0080     0.1160 ca         1 6NH      -0.098000
      3 C3           3.9120     1.8840     0.1580 ca         1 6NH      -0.137000
      4 C4           2.6420     1.3270     0.1080 ca         1 6NH      -0.070200
      5 C5           2.4380    -0.0620     0.0280 ca         1 6NH       0.074400
      6 C6           3.5240    -0.9280    -0.0070 ca         1 6NH      -0.019000
      7 C7           5.9710    -1.3100    -0.0110 ce         1 6NH       0.662800
      8 N1           7.1350    -0.7590    -0.4670 nv         1 6NH      -0.966800
      9 N2           5.8230    -2.5070     0.4110 n2         1 6NH      -0.827100
     10 N3           1.3860     1.8710     0.1210 na         1 6NH      -0.237300
     11 N4           1.0910    -0.3280    -0.0050 nc         1 6NH      -0.622100
     12 C8           0.5060     0.8450     0.0530 cd         1 6NH       0.402800
     13 C11         -0.9270     0.9660     0.0460 cd         1 6NH       0.200000
     14 C10         -1.7990    -0.1380    -0.0140 cd         1 6NH       0.037800
     15 O4          -1.4620    -1.4300    -0.0820 oh         1 6NH      -0.479100
     16 C9          -3.0700     0.4100    -0.0060 cc         1 6NH      -0.099300
     17 N6          -2.8620     1.7540     0.0530 na         1 6NH       0.025400
     18 N5          -1.6000     2.1090     0.0900 nc         1 6NH      -0.493800
     19 C1B         -4.3950    -0.1940    -0.0690 ca         1 6NH      -0.006000
     20 C2B         -5.4830     0.5190    -0.5800 ca         1 6NH      -0.115000
     21 C3B         -6.7450    -0.0530    -0.6210 ca         1 6NH      -0.126000
     22 C4B         -6.9420    -1.3500    -0.1660 ca         1 6NH      -0.123000
     23 C5B         -5.8650    -2.0690     0.3350 ca         1 6NH      -0.126000
     24 C6B         -4.6020    -1.4980     0.3880 ca         1 6NH      -0.115000
     25 H2           5.9810     1.4180     0.1760 ha         1 6NH       0.137000
     26 H3           4.0660     2.9510     0.2320 ha         1 6NH       0.139000
     27 H6           3.3830    -1.9990    -0.0710 ha         1 6NH       0.170000
     28 HN11         7.0790     0.0050    -1.1190 hn         1 6NH       0.405300
     29 HN12         7.9030    -1.3870    -0.6460 hn         1 6NH       0.405300
     30 HN2          6.6770    -3.0460     0.2910 hn         1 6NH       0.370400
     31 HN3          1.1510     2.8500     0.1710 hn         1 6NH       0.321700
     32 H4          -0.4830    -1.4740    -0.0780 ho         1 6NH       0.476000
     33 H1          -3.5720     2.4670     0.1170 hn         1 6NH       0.329700
     34 H2B         -5.3500     1.5220    -0.9650 ha         1 6NH       0.136000
     35 H3B         -7.5760     0.5150    -1.0190 ha         1 6NH       0.133000
     36 H4B         -7.9270    -1.7960    -0.2010 ha         1 6NH       0.133000
     37 H5B         -6.0090    -3.0790     0.6960 ha         1 6NH       0.133000
     38 H6B         -3.7810    -2.0690     0.8000 ha         1 6NH       0.136000
@<TRIPOS>BOND
     1     1     2 ar  
     2     1     6 ar  
     3     1     7 1   
     4     2     3 ar  
     5     2    25 1   
     6     3     4 ar  
     7     3    26 1   
     8     4     5 ar  
     9     4    10 1   
    10     5     6 ar  
    11     5    11 1   
    12     6    27 1   
    13     7     8 1   
    14     7     9 2   
    15     8    28 1   
    16     8    29 1   
    17     9    30 1   
    18    10    12 1   
    19    10    31 1   
    20    11    12 2   
    21    12    13 1   
    22    13    14 1   
    23    13    18 2   
    24    14    15 1   
    25    14    16 2   
    26    15    32 1   
    27    16    17 1   
    28    16    19 1   
    29    17    18 1   
    30    17    33 1   
    31    19    20 ar  
    32    19    24 ar  
    33    20    21 ar  
    34    20    34 1   
    35    21    22 ar  
    36    21    35 1   
    37    22    23 ar  
    38    22    36 1   
    39    23    24 ar  
    40    23    37 1   
    41    24    38 1   
@<TRIPOS>SUBSTRUCTURE
     1 6NH         1 TEMP              0 ****  ****    0 ROOT
