@<TRIPOS>MOLECULE
6NH
   38    41     1     0     0
SMALL
No Charge or Current Charge


@<TRIPOS>ATOM
      1 C1           4.8360    -0.4190    -0.0120 ca         1 6NH      -0.167900
      2 C2           5.0010     0.9930     0.0980 ca         1 6NH      -0.080000
      3 C3           3.8810     1.8480     0.1520 ca         1 6NH      -0.119000
      4 C4           2.6100     1.2690     0.1090 ca         1 6NH      -0.070200
      5 C5           2.4210    -0.0810     0.0250 ca         1 6NH       0.074400
      6 C6           3.5200    -0.9530    -0.0300 ca         1 6NH      -0.001000
      7 C7           6.0120    -1.3440    -0.0390 ce         1 6NH       0.662800
      8 N1           7.2020    -0.8500    -0.4380 nv         1 6NH      -1.077200
      9 N2           5.9240    -2.5870     0.1970 n2         1 6NH      -0.827100
     10 N3           1.3890     1.8810     0.1520 na         1 6NH      -0.287600
     11 N4           1.0750    -0.4080     0.0090 nc         1 6NH      -0.622100
     12 C8           0.4890     0.8100     0.0880 cd         1 6NH       0.402800
     13 C11         -0.9450     1.0260     0.1050 cd         1 6NH       0.134700
     14 C10         -1.8830    -0.0400     0.0350 cd         1 6NH       0.103100
     15 O4          -1.5630    -1.3510    -0.0850 oh         1 6NH      -0.518100
     16 C9          -3.1220     0.5360     0.0770 cc         1 6NH      -0.150000
     17 N6          -2.8760     1.9090     0.1370 na         1 6NH       0.025800
     18 N5          -1.5210     2.2220     0.1720 nc         1 6NH      -0.493800
     19 C1B         -4.4110    -0.1570    -0.0320 ca         1 6NH      -0.006000
     20 C2B         -5.4990     0.4870    -0.6570 ca         1 6NH      -0.097000
     21 C3B         -6.7480    -0.1520    -0.7630 ca         1 6NH      -0.108000
     22 C4B         -6.9250    -1.4410    -0.2370 ca         1 6NH      -0.105000
     23 C5B         -5.8530    -2.0890     0.3980 ca         1 6NH      -0.108000
     24 C6B         -4.6050    -1.4500     0.5020 ca         1 6NH      -0.097000
     25 H2           5.9930     1.4340     0.1530 ha         1 6NH       0.119000
     26 H3           4.0060     2.9260     0.2330 ha         1 6NH       0.121000
     27 H6           3.3480    -2.0240    -0.0930 ha         1 6NH       0.152000
     28 HN11         7.1540     0.0510    -0.8990 hn         1 6NH       0.460500
     29 HN12         7.8440    -1.5130    -0.8570 hn         1 6NH       0.460500
     30 HN2          6.8740    -2.9550     0.3120 hn         1 6NH       0.370400
     31 HN3          1.1600     2.8640     0.2140 hn         1 6NH       0.372000
     32 H4          -0.5720    -1.3800    -0.0880 ho         1 6NH       0.515000
     33 H1          -3.5840     2.6410     0.1690 hn         1 6NH       0.380000
     34 H2B         -5.3790     1.4830    -1.0760 ha         1 6NH       0.118000
     35 H3B         -7.5770     0.3540    -1.2540 ha         1 6NH       0.115000
     36 H4B         -7.8910    -1.9350    -0.3170 ha         1 6NH       0.115000
     37 H5B         -5.9900    -3.0840     0.8140 ha         1 6NH       0.115000
     38 H6B         -3.7950    -1.9600     1.0160 ha         1 6NH       0.118000
@<TRIPOS>BOND
     1     1     2 ar  
     2     1     6 ar  
     3     1     7 1   
     4     2     3 ar  
     5     2    25 1   
     6     3     4 ar  
     7     3    26 1   
     8     4     5 ar  
     9     4    10 1   
    10     5     6 ar  
    11     5    11 1   
    12     6    27 1   
    13     7     8 1   
    14     7     9 2   
    15     8    28 1   
    16     8    29 1   
    17     9    30 1   
    18    10    12 1   
    19    10    31 1   
    20    11    12 2   
    21    12    13 1   
    22    13    14 1   
    23    13    18 2   
    24    14    15 1   
    25    14    16 2   
    26    15    32 1   
    27    16    17 1   
    28    16    19 1   
    29    17    18 1   
    30    17    33 1   
    31    19    20 ar  
    32    19    24 ar  
    33    20    21 ar  
    34    20    34 1   
    35    21    22 ar  
    36    21    35 1   
    37    22    23 ar  
    38    22    36 1   
    39    23    24 ar  
    40    23    37 1   
    41    24    38 1   
@<TRIPOS>SUBSTRUCTURE
     1 6NH         1 TEMP              0 ****  ****    0 ROOT
