@<TRIPOS>MOLECULE
6NH
   38    41     1     0     0
SMALL
bcc


@<TRIPOS>ATOM
      1 H1           4.8020    -0.3870     0.0300 ca         1 6NH      -0.084000
      2 H2           4.9810     1.0080     0.1160 ca         1 6NH      -0.098000
      3 H3           3.9120     1.8840     0.1580 ca         1 6NH      -0.137000
      4 H4           2.6420     1.3270     0.1080 ca         1 6NH      -0.025000
      5 H5           2.4380    -0.0620     0.0280 ca         1 6NH      -0.065000
      6 H6           3.5240    -0.9280    -0.0070 ca         1 6NH      -0.019000
      7 H7           5.9710    -1.3100    -0.0110 c2         1 6NH       0.139000
      8 H1           7.1350    -0.7590    -0.4670 n8         1 6NH      -0.405000
      9 H2           5.8230    -2.5070     0.4110 n2         1 6NH      -0.295000
     10 H3           1.3860     1.8710     0.1210 na         1 6NH      -0.194000
     11 H4           1.0910    -0.3280    -0.0050 n2         1 6NH      -0.195000
     12 H8           0.5060     0.8450     0.0530 cc         1 6NH       0.106000
     13 H11         -0.9270     0.9660     0.0460 cc         1 6NH      -0.158000
     14 H10         -1.7990    -0.1380    -0.0140 cc         1 6NH       0.058000
     15 H4          -1.4620    -1.4300    -0.0820 oh         1 6NH      -0.233000
     16 H9          -3.0700     0.4100    -0.0060 cd         1 6NH      -0.075000
     17 H6          -2.8620     1.7540     0.0530 na         1 6NH      -0.119000
     18 H5          -1.6000     2.1090     0.0900 n2         1 6NH      -0.061000
     19 H1B         -4.3950    -0.1940    -0.0690 ca         1 6NH      -0.006000
     20 H2B         -5.4830     0.5190    -0.5800 ca         1 6NH      -0.115000
     21 H3B         -6.7450    -0.0530    -0.6210 ca         1 6NH      -0.126000
     22 H4B         -6.9420    -1.3500    -0.1660 ca         1 6NH      -0.123000
     23 H5B         -5.8650    -2.0690     0.3350 ca         1 6NH      -0.126000
     24 H6B         -4.6020    -1.4980     0.3880 ca         1 6NH      -0.115000
     25 H2           5.9810     1.4180     0.1760 ha         1 6NH       0.137000
     26 H3           4.0660     2.9510     0.2320 ha         1 6NH       0.139000
     27 H6           3.3830    -1.9990    -0.0710 ha         1 6NH       0.170000
     28 HN11         7.0790     0.0050    -1.1190 ha         1 6NH       0.200500
     29 HN12         7.9030    -1.3870    -0.6460 ha         1 6NH       0.200500
     30 HN2          6.6770    -3.0460     0.2910 ha         1 6NH       0.126000
     31 HN3          1.1510     2.8500     0.1710 ha         1 6NH       0.272000
     32 H4          -0.4830    -1.4740    -0.0780 ha         1 6NH       0.275000
     33 H1          -3.5720     2.4670     0.1170 ha         1 6NH       0.280000
     34 H2B         -5.3500     1.5220    -0.9650 ha         1 6NH       0.136000
     35 H3B         -7.5760     0.5150    -1.0190 ha         1 6NH       0.133000
     36 H4B         -7.9270    -1.7960    -0.2010 ha         1 6NH       0.133000
     37 H5B         -6.0090    -3.0790     0.6960 ha         1 6NH       0.133000
     38 H6B         -3.7810    -2.0690     0.8000 ha         1 6NH       0.136000
@<TRIPOS>BOND
     1     1     2 ar  
     2     1     6 ar  
     3     1     7 1   
     4     2     3 ar  
     5     2    25 1   
     6     3     4 ar  
     7     3    26 1   
     8     4     5 ar  
     9     4    10 1   
    10     5     6 ar  
    11     5    11 1   
    12     6    27 1   
    13     7     8 1   
    14     7     9 2   
    15     8    28 1   
    16     8    29 1   
    17     9    30 1   
    18    10    12 1   
    19    10    31 1   
    20    11    12 2   
    21    12    13 1   
    22    13    14 1   
    23    13    18 2   
    24    14    15 1   
    25    14    16 2   
    26    15    32 1   
    27    16    17 1   
    28    16    19 1   
    29    17    18 1   
    30    17    33 1   
    31    19    20 ar  
    32    19    24 ar  
    33    20    21 ar  
    34    20    34 1   
    35    21    22 ar  
    36    21    35 1   
    37    22    23 ar  
    38    22    36 1   
    39    23    24 ar  
    40    23    37 1   
    41    24    38 1   
@<TRIPOS>SUBSTRUCTURE
     1 6NH         1 TEMP              0 ****  ****    0 ROOT
