@<TRIPOS>MOLECULE
6NI
   17    18     1     0     0
SMALL
bcc


@<TRIPOS>ATOM
      1 C6           1.0900    -0.0640     0.0140 ca         1 6NI      -0.142200
      2 C7           0.1860     0.9750     0.0140 ca         1 6NI      -0.070000
      3 C8          -1.1560     0.6030     0.0080 ca         1 6NI      -0.063200
      4 C9          -1.5710    -0.7410     0.0020 ca         1 6NI      -0.197900
      5 C4          -0.6140    -1.7640     0.0030 ca         1 6NI      -0.058000
      6 C5           0.7160    -1.4230     0.0090 ca         1 6NI      -0.117000
      7 N1          -2.2890     1.3420     0.0060 na         1 6NI       0.000900
      8 N2          -3.3810     0.5850    -0.0010 nc         1 6NI      -0.493100
      9 C3          -2.9870    -0.6650    -0.0040 cd         1 6NI       0.349800
     10 N10          2.5080     0.2660     0.0210 no         1 6NI       0.310200
     11 O11          3.3040    -0.6440     0.0210 o          1 6NI      -0.206500
     12 O12          2.8240     1.4330     0.0260 o          1 6NI      -0.206500
     13 H71          0.4890     2.0120     0.0190 ha         1 6NI       0.176000
     14 H41         -0.9090    -2.8050    -0.0010 ha         1 6NI       0.151000
     15 H51          1.4690    -2.1950     0.0090 ha         1 6NI       0.171000
     16 HN11        -2.3750     2.3460     0.0080 hn         1 6NI       0.335700
     17 H31         -3.7040    -1.4710    -0.0090 h4         1 6NI       0.058800
@<TRIPOS>BOND
     1     1     2 ar  
     2     1     6 ar  
     3     1    10 1   
     4     2     3 ar  
     5     2    13 1   
     6     3     4 ar  
     7     3     7 1   
     8     4     5 ar  
     9     4     9 1   
    10     5     6 ar  
    11     5    14 1   
    12     6    15 1   
    13     7     8 1   
    14     7    16 1   
    15     8     9 2   
    16     9    17 1   
    17    10    11 1   
    18    10    12 1   
@<TRIPOS>SUBSTRUCTURE
     1 6NI         1 TEMP              0 ****  ****    0 ROOT
