@<TRIPOS>MOLECULE
6NI
   17    18     1     0     0
SMALL
No Charge or Current Charge


@<TRIPOS>ATOM
      1 C6           1.1440    -0.0670     0.0150 ca         1 6NI      -0.142200
      2 C7           0.1650     0.9640     0.0140 ca         1 6NI      -0.052000
      3 C8          -1.1860     0.5890     0.0080 ca         1 6NI      -0.063200
      4 C9          -1.5700    -0.7110     0.0020 ca         1 6NI      -0.197900
      5 C4          -0.6490    -1.7650     0.0020 ca         1 6NI      -0.040000
      6 C5           0.7230    -1.4320     0.0090 ca         1 6NI      -0.099000
      7 N1          -2.3240     1.3760     0.0060 na         1 6NI      -0.049400
      8 N2          -3.4770     0.5670    -0.0010 nc         1 6NI      -0.493100
      9 C3          -3.0140    -0.6950    -0.0040 cd         1 6NI       0.349800
     10 N10          2.6030     0.2800     0.0210 no         1 6NI       0.690200
     11 O11          3.4260    -0.6470     0.0220 o          1 6NI      -0.396500
     12 O12          2.9210     1.4770     0.0270 o          1 6NI      -0.396500
     13 H71          0.4410     2.0170     0.0180 ha         1 6NI       0.158000
     14 H41         -0.9760    -2.8030    -0.0020 ha         1 6NI       0.133000
     15 H51          1.4550    -2.2380     0.0090 ha         1 6NI       0.153000
     16 HN11        -2.3670     2.3950     0.0080 hn         1 6NI       0.386000
     17 H31         -3.7170    -1.5190    -0.0090 h4         1 6NI       0.058800
@<TRIPOS>BOND
     1     1     2 ar  
     2     1     6 ar  
     3     1    10 1   
     4     2     3 ar  
     5     2    13 1   
     6     3     4 ar  
     7     3     7 1   
     8     4     5 ar  
     9     4     9 1   
    10     5     6 ar  
    11     5    14 1   
    12     6    15 1   
    13     7     8 1   
    14     7    16 1   
    15     8     9 2   
    16     9    17 1   
    17    10    11 1   
    18    10    12 1   
@<TRIPOS>SUBSTRUCTURE
     1 6NI         1 TEMP              0 ****  ****    0 ROOT
