@<TRIPOS>MOLECULE
6NJ
   31    33     1     0     0
SMALL
No Charge or Current Charge


@<TRIPOS>ATOM
      1 C1          -5.3020    -0.5640    -0.1840 ca         1 6NJ      -0.111000
      2 C2          -4.3530    -1.5980    -0.2530 ca         1 6NJ      -0.109500
      3 C3          -2.9970    -1.3260    -0.0040 ca         1 6NJ      -0.106500
      4 C4          -2.5810    -0.0190     0.3160 ca         1 6NJ      -0.080300
      5 C5          -3.5360     1.0140     0.3820 ca         1 6NJ      -0.106500
      6 C6          -4.8930     0.7420     0.1340 ca         1 6NJ      -0.109500
      7 C7          -1.1110     0.2760     0.5800 c3         1 6NJ      -0.030100
      8 C8          -0.3550     0.6520    -0.7120 c3         1 6NJ      -0.082700
      9 C9           1.1080     0.9200    -0.4810 cc         1 6NJ       0.355900
     10 C10          2.1110    -0.0810    -0.2090 ca         1 6NJ      -0.229900
     11 C11          2.0460    -1.4780    -0.1120 ca         1 6NJ      -0.034000
     12 C12          3.2460    -2.1660     0.1720 ca         1 6NJ      -0.152000
     13 C13          4.4610    -1.4550     0.3470 ca         1 6NJ      -0.072000
     14 C14          4.4850    -0.0470     0.2380 ca         1 6NJ      -0.134000
     15 C15          3.2750     0.6000    -0.0440 ca         1 6NJ      -0.035200
     16 N16          2.9890     1.9370    -0.2090 na         1 6NJ      -0.064400
     17 N17          1.6320     2.1570    -0.4840 nd         1 6NJ      -0.516100
     18 H1          -6.3520    -0.7740    -0.3760 ha         1 6NJ       0.111000
     19 H2          -4.6690    -2.6100    -0.5000 ha         1 6NJ       0.111500
     20 H3          -2.2680    -2.1320    -0.0620 ha         1 6NJ       0.111000
     21 H5          -3.2270     2.0290     0.6250 ha         1 6NJ       0.111000
     22 H6          -5.6260     1.5440     0.1860 ha         1 6NJ       0.111500
     23 H7          -1.0120     1.0950     1.3030 hc         1 6NJ       0.052200
     24 H7A         -0.6300    -0.5960     1.0410 hc         1 6NJ       0.052200
     25 H8          -0.4590    -0.1610    -1.4400 hc         1 6NJ       0.059700
     26 H8A         -0.8280     1.5330    -1.1620 hc         1 6NJ       0.059700
     27 H11          1.1090    -2.0160    -0.2500 ha         1 6NJ       0.117000
     28 H12          3.2390    -3.2500     0.2560 ha         1 6NJ       0.114000
     29 H13          5.3790    -1.9960     0.5640 ha         1 6NJ       0.112000
     30 H14          5.4090     0.5120     0.3670 ha         1 6NJ       0.119000
     31 HN16         3.6550     2.7070    -0.1460 hn         1 6NJ       0.376000
@<TRIPOS>BOND
     1     1     2 ar  
     2     1     6 ar  
     3     1    18 1   
     4     2     3 ar  
     5     2    19 1   
     6     3     4 ar  
     7     3    20 1   
     8     4     5 ar  
     9     4     7 1   
    10     5     6 ar  
    11     5    21 1   
    12     6    22 1   
    13     7     8 1   
    14     7    23 1   
    15     7    24 1   
    16     8     9 1   
    17     8    25 1   
    18     8    26 1   
    19     9    10 1   
    20     9    17 2   
    21    10    11 ar  
    22    10    15 ar  
    23    11    12 ar  
    24    11    27 1   
    25    12    13 ar  
    26    12    28 1   
    27    13    14 ar  
    28    13    29 1   
    29    14    15 ar  
    30    14    30 1   
    31    15    16 1   
    32    16    17 1   
    33    16    31 1   
@<TRIPOS>SUBSTRUCTURE
     1 6NJ         1 TEMP              0 ****  ****    0 ROOT
