@<TRIPOS>MOLECULE
6NJ
   31    33     1     0     0
SMALL
bcc


@<TRIPOS>ATOM
      1 C1          -5.2960    -0.4730    -0.2010 ca         1 6NJ      -0.129000
      2 C2          -4.3910    -1.5240    -0.2770 ca         1 6NJ      -0.127500
      3 C3          -3.0460    -1.3040    -0.0120 ca         1 6NJ      -0.124500
      4 C4          -2.5820    -0.0370     0.3330 ca         1 6NJ      -0.080300
      5 C5          -3.4990     1.0100     0.4040 ca         1 6NJ      -0.124500
      6 C6          -4.8460     0.7960     0.1410 ca         1 6NJ      -0.127500
      7 C7          -1.1190     0.2080     0.5760 c3         1 6NJ      -0.030100
      8 C8          -0.3840     0.5860    -0.7200 c3         1 6NJ      -0.082700
      9 C9           1.0690     0.8230    -0.4920 cc         1 6NJ       0.355900
     10 C10          2.0790    -0.1460    -0.2150 ca         1 6NJ      -0.229900
     11 C11          2.1210    -1.5420    -0.1020 ca         1 6NJ      -0.052000
     12 C12          3.3300    -2.1370     0.1810 ca         1 6NJ      -0.170000
     13 C13          4.4980    -1.3650     0.3530 ca         1 6NJ      -0.090000
     14 C14          4.4860     0.0070     0.2460 ca         1 6NJ      -0.152000
     15 C15          3.2540     0.6050    -0.0430 ca         1 6NJ      -0.035200
     16 N16          2.8930     1.8970    -0.2190 na         1 6NJ      -0.014100
     17 N17          1.5890     2.0260    -0.4860 nd         1 6NJ      -0.516100
     18 H1          -6.3460    -0.6430    -0.4020 ha         1 6NJ       0.129000
     19 H2          -4.7330    -2.5170    -0.5400 ha         1 6NJ       0.129500
     20 H3          -2.3460    -2.1310    -0.0690 ha         1 6NJ       0.129000
     21 H5          -3.1570     2.0020     0.6740 ha         1 6NJ       0.129000
     22 H6          -5.5450     1.6190     0.2070 ha         1 6NJ       0.129500
     23 H7          -0.9890     1.0110     1.3040 hc         1 6NJ       0.052200
     24 H7A         -0.6600    -0.6850     1.0080 hc         1 6NJ       0.052200
     25 H8          -0.5160    -0.2120    -1.4550 hc         1 6NJ       0.059700
     26 H8A         -0.8350     1.4860    -1.1440 hc         1 6NJ       0.059700
     27 H11          1.2290    -2.1420    -0.2340 ha         1 6NJ       0.135000
     28 H12          3.3930    -3.2130     0.2730 ha         1 6NJ       0.132000
     29 H13          5.4300    -1.8680     0.5790 ha         1 6NJ       0.130000
     30 H14          5.3860     0.5930     0.3810 ha         1 6NJ       0.137000
     31 HN16         3.4750     2.7160    -0.1660 hn         1 6NJ       0.325700
@<TRIPOS>BOND
     1     1     2 ar  
     2     1     6 ar  
     3     1    18 1   
     4     2     3 ar  
     5     2    19 1   
     6     3     4 ar  
     7     3    20 1   
     8     4     5 ar  
     9     4     7 1   
    10     5     6 ar  
    11     5    21 1   
    12     6    22 1   
    13     7     8 1   
    14     7    23 1   
    15     7    24 1   
    16     8     9 1   
    17     8    25 1   
    18     8    26 1   
    19     9    10 1   
    20     9    17 2   
    21    10    11 ar  
    22    10    15 ar  
    23    11    12 ar  
    24    11    27 1   
    25    12    13 ar  
    26    12    28 1   
    27    13    14 ar  
    28    13    29 1   
    29    14    15 ar  
    30    14    30 1   
    31    15    16 1   
    32    16    17 1   
    33    16    31 1   
@<TRIPOS>SUBSTRUCTURE
     1 6NJ         1 TEMP              0 ****  ****    0 ROOT
