@<TRIPOS>MOLECULE
6NK
   40    42     1     0     0
SMALL
abcg2


@<TRIPOS>ATOM
      1 C1          -4.5850    -0.3660    -0.0330 ca         1 6NK      -0.161600
      2 C2          -4.8320     1.0080    -0.1760 ca         1 6NK      -0.098000
      3 C3          -3.8060     1.9380    -0.2330 ca         1 6NK      -0.085000
      4 C4          -2.4940     1.4820    -0.1410 ca         1 6NK       0.132400
      5 N5          -0.8890    -0.0140     0.0500 na         1 6NK      -0.347600
      6 C12         -2.2600     0.1000    -0.0060 ca         1 6NK      -0.107200
      7 C13         -3.2710    -0.8340     0.0430 ca         1 6NK      -0.043000
      8 O           -5.4370    -2.5740    -0.1590 o          1 6NK      -0.617100
      9 C           -5.6740    -1.3830     0.0140 c          1 6NK       0.620700
     10 N1          -6.9190    -0.9340     0.2470 nt         1 6NK      -0.604000
     11 C5          -0.3800     1.2450    -0.0530 cc         1 6NK       0.667700
     12 N2          -1.3120     2.1690    -0.1660 nd         1 6NK      -0.654100
     13 N3           0.9410     1.4970    -0.0700 nu         1 6NK      -0.897400
     14 C6           1.9470     0.5190     0.2830 c3         1 6NK       0.220800
     15 C7           3.3180     1.0180    -0.1500 c3         1 6NK       0.158800
     16 H1          -5.8460     1.3740    -0.2740 ha         1 6NK       0.106000
     17 H2          -4.0220     2.9910    -0.3530 ha         1 6NK       0.129000
     18 H3          -0.3710    -0.8690     0.1690 hn         1 6NK       0.358000
     19 H4          -3.0630    -1.8910     0.1440 ha         1 6NK       0.139000
     20 H5          -7.1170     0.0090     0.5290 hn         1 6NK       0.312000
     21 H6          -7.6760    -1.5950     0.3140 hn         1 6NK       0.312000
     22 H8           1.1780     2.4690     0.0610 hn         1 6NK       0.507000
     23 H9           1.9600     0.3110     1.3580 h1         1 6NK       0.045200
     24 H10          1.7180    -0.4190    -0.2280 h1         1 6NK       0.045200
     25 H11          3.3010     1.2500    -1.2270 h1         1 6NK       0.043700
     26 H12          3.5250     1.9580     0.3700 h1         1 6NK       0.043700
     27 N4           4.3600     0.0760     0.1960 n3         1 6NK      -0.724600
     28 C9           5.6650     0.7060     0.2900 c6         1 6NK       0.128300
     29 C10          6.6980    -0.3120     0.7340 c6         1 6NK       0.152600
     30 O1           6.7550    -1.4130    -0.1470 os         1 6NK      -0.446000
     31 C14          5.4910    -2.0300    -0.2560 c6         1 6NK       0.152600
     32 C15          4.4290    -1.0510    -0.7180 c6         1 6NK       0.128300
     33 H7           5.9770     1.1510    -0.6700 h1         1 6NK       0.042700
     34 H13          5.6270     1.5130     1.0250 h1         1 6NK       0.042700
     35 H14          7.6890     0.1430     0.7540 h1         1 6NK       0.052950
     36 H15          6.4590    -0.6490     1.7530 h1         1 6NK       0.052950
     37 H16          5.5860    -2.8450    -0.9740 h1         1 6NK       0.052950
     38 H17          5.1910    -2.4630     0.7090 h1         1 6NK       0.052950
     39 H18          3.4720    -1.5770    -0.7500 h1         1 6NK       0.042700
     40 H19          4.6510    -0.7210    -1.7470 h1         1 6NK       0.042700
@<TRIPOS>BOND
     1     1     2 ar  
     2     1     7 ar  
     3     1     9 1   
     4     2     3 ar  
     5     2    16 1   
     6     3     4 ar  
     7     3    17 1   
     8     4     6 ar  
     9     4    12 1   
    10     5     6 1   
    11     5    11 1   
    12     5    18 1   
    13     6     7 ar  
    14     7    19 1   
    15     8     9 2   
    16     9    10 1   
    17    10    20 1   
    18    10    21 1   
    19    11    12 2   
    20    11    13 1   
    21    13    14 1   
    22    13    22 1   
    23    14    15 1   
    24    14    23 1   
    25    14    24 1   
    26    15    25 1   
    27    15    26 1   
    28    15    27 1   
    29    27    28 1   
    30    27    32 1   
    31    28    29 1   
    32    28    33 1   
    33    28    34 1   
    34    29    30 1   
    35    29    35 1   
    36    29    36 1   
    37    30    31 1   
    38    31    32 1   
    39    31    37 1   
    40    31    38 1   
    41    32    39 1   
    42    32    40 1   
@<TRIPOS>SUBSTRUCTURE
     1 6NK         1 TEMP              0 ****  ****    0 ROOT
