@<TRIPOS>MOLECULE
6NK
   40    42     1     0     0
SMALL
No Charge or Current Charge


@<TRIPOS>ATOM
      1 C1          -4.7820    -0.3280     0.0780 ca         1 6NK      -0.161600
      2 C2          -4.9700     1.0750    -0.1070 ca         1 6NK      -0.098000
      3 C3          -3.8640     1.9470    -0.2230 ca         1 6NK      -0.085000
      4 C4          -2.5750     1.4070    -0.1530 ca         1 6NK       0.132400
      5 N5          -1.0530    -0.1470     0.0510 na         1 6NK      -0.347600
      6 C12         -2.3980     0.0640     0.0240 ca         1 6NK      -0.107200
      7 C13         -3.4610    -0.8390     0.1440 ca         1 6NK      -0.043000
      8 O           -5.8060    -2.4840     0.3620 o          1 6NK      -0.617100
      9 C           -5.9500    -1.2820     0.2040 c          1 6NK       0.620700
     10 N1          -7.2000    -0.7760     0.1390 nt         1 6NK      -0.604000
     11 C5          -0.4690     1.0910    -0.1130 cc         1 6NK       0.667700
     12 N2          -1.3550     2.0760    -0.2420 nd         1 6NK      -0.654100
     13 N3           0.8610     1.3190    -0.1440 nu         1 6NK      -0.897400
     14 C6           1.9350     0.3300     0.0680 c3         1 6NK       0.220800
     15 C7           3.3500     0.9720    -0.0070 c3         1 6NK       0.158800
     16 H1          -5.9670     1.5040    -0.1620 ha         1 6NK       0.106000
     17 H2          -4.0080     3.0150    -0.3630 ha         1 6NK       0.129000
     18 H3          -0.5610    -1.0200     0.1630 hn         1 6NK       0.358000
     19 H4          -3.2700    -1.9020     0.2830 ha         1 6NK       0.139000
     20 H5          -7.3400     0.2130     0.0090 hn         1 6NK       0.312000
     21 H6          -7.9880    -1.4010     0.2220 hn         1 6NK       0.312000
     22 H8           1.0940     2.3050    -0.2310 hn         1 6NK       0.507000
     23 H9           1.8140    -0.1400     1.0530 h1         1 6NK       0.045200
     24 H10          1.8550    -0.4590    -0.6920 h1         1 6NK       0.045200
     25 H11          3.4770     1.4110    -1.0060 h1         1 6NK       0.043700
     26 H12          3.3690     1.8030     0.7110 h1         1 6NK       0.043700
     27 N4           4.4890     0.0560     0.2870 n3         1 6NK      -0.724600
     28 C9           5.7910     0.7860     0.3990 c6         1 6NK       0.128300
     29 C10          6.9710    -0.1770     0.7290 c6         1 6NK       0.152600
     30 O1           7.0410    -1.2380    -0.2520 os         1 6NK      -0.446000
     31 C14          5.8200    -2.0120    -0.3250 c6         1 6NK       0.152600
     32 C15          4.6130    -1.0900    -0.6740 c6         1 6NK       0.128300
     33 H7           6.0180     1.3080    -0.5430 h1         1 6NK       0.042700
     34 H13          5.7330     1.5520     1.1850 h1         1 6NK       0.042700
     35 H14          7.9190     0.3790     0.7280 h1         1 6NK       0.052950
     36 H15          6.8300    -0.6140     1.7280 h1         1 6NK       0.052950
     37 H16          5.9310    -2.7900    -1.0920 h1         1 6NK       0.052950
     38 H17          5.6460    -2.5070     0.6420 h1         1 6NK       0.052950
     39 H18          3.7010    -1.7040    -0.6680 h1         1 6NK       0.042700
     40 H19          4.7430    -0.7150    -1.7000 h1         1 6NK       0.042700
@<TRIPOS>BOND
     1     1     2 ar  
     2     1     7 ar  
     3     1     9 1   
     4     2     3 ar  
     5     2    16 1   
     6     3     4 ar  
     7     3    17 1   
     8     4     6 ar  
     9     4    12 1   
    10     5     6 1   
    11     5    11 1   
    12     5    18 1   
    13     6     7 ar  
    14     7    19 1   
    15     8     9 2   
    16     9    10 1   
    17    10    20 1   
    18    10    21 1   
    19    11    12 2   
    20    11    13 1   
    21    13    14 1   
    22    13    22 1   
    23    14    15 1   
    24    14    23 1   
    25    14    24 1   
    26    15    25 1   
    27    15    26 1   
    28    15    27 1   
    29    27    28 1   
    30    27    32 1   
    31    28    29 1   
    32    28    33 1   
    33    28    34 1   
    34    29    30 1   
    35    29    35 1   
    36    29    36 1   
    37    30    31 1   
    38    31    32 1   
    39    31    37 1   
    40    31    38 1   
    41    32    39 1   
    42    32    40 1   
@<TRIPOS>SUBSTRUCTURE
     1 6NK         1 TEMP              0 ****  ****    0 ROOT
