@<TRIPOS>MOLECULE
6NL
   43    45     1     0     0
SMALL
No Charge or Current Charge


@<TRIPOS>ATOM
      1 CAI          8.0080    -0.4410     0.9430 c3         1 6NL       0.144900
      2 OAH          6.9780     0.4920     0.5720 os         1 6NL      -0.317100
      3 CAE          5.6910     0.0890     0.2500 ca         1 6NL       0.125100
      4 CAF          4.7350     1.0720    -0.1070 ca         1 6NL       0.102100
      5 CAA          3.4220     0.6910    -0.4380 ca         1 6NL      -0.158000
      6 OAG          5.0720     2.4000    -0.1390 oh         1 6NL      -0.515100
      7 CAD          5.3100    -1.2720     0.2600 ca         1 6NL      -0.175000
      8 CAC          3.9950    -1.6410    -0.0730 ca         1 6NL      -0.086000
      9 CAB          3.0420    -0.6640    -0.4110 ca         1 6NL      -0.066800
     10 CAJ          1.6600    -1.0860    -0.7740 ce         1 6NL      -0.091200
     11 CAK          0.4550    -0.5530    -0.3910 cf         1 6NL      -0.197400
     12 CAM          0.3720     0.5950     0.6140 c3         1 6NL      -0.044900
     13 CAL         -0.8370    -1.1790    -0.8660 c          1 6NL       0.586900
     14 OAN         -0.8290    -2.2210    -1.5130 o          1 6NL      -0.524100
     15 CAO         -2.1640    -0.5240    -0.5610 ca         1 6NL      -0.132600
     16 CAT         -3.2200    -1.2920     0.0020 ca         1 6NL      -0.147000
     17 CAP         -2.3840     0.8400    -0.8720 ca         1 6NL      -0.094000
     18 CAQ         -3.6340     1.3980    -0.5820 ca         1 6NL       0.071100
     19 OAW         -4.0010     2.6810    -0.8280 os         1 6NL      -0.343100
     20 CAX         -5.3560     2.7460    -0.2590 c5         1 6NL       0.369600
     21 OAY         -5.7760     1.3970     0.1500 os         1 6NL      -0.324100
     22 CAR         -4.6430     0.6620    -0.0270 ca         1 6NL       0.030100
     23 CAS         -4.4780    -0.7000     0.2790 ca         1 6NL       0.147100
     24 OAU         -5.5360    -1.4020     0.8270 os         1 6NL      -0.320100
     25 CAV         -5.4370    -2.7970     1.1620 c3         1 6NL       0.143900
     26 HAK          7.7220    -1.0010     1.8430 h1         1 6NL       0.041367
     27 HAJ          8.2010    -1.1530     0.1310 h1         1 6NL       0.041367
     28 HAI          8.9430     0.0910     1.1580 h1         1 6NL       0.041367
     29 HAA          2.6970     1.4460    -0.7290 ha         1 6NL       0.117000
     30 HAG          4.2840     2.9180    -0.4090 ho         1 6NL       0.459000
     31 HAD          6.0160    -2.0550     0.5230 ha         1 6NL       0.122000
     32 HAC          3.7140    -2.6920    -0.0610 ha         1 6NL       0.118000
     33 HAL          1.6510    -1.9580    -1.4320 ha         1 6NL       0.188000
     34 HAO          0.3470     1.5680     0.1100 hc         1 6NL       0.045033
     35 HAN         -0.5160     0.5230     1.2520 hc         1 6NL       0.045033
     36 HAM          1.2320     0.5990     1.2940 hc         1 6NL       0.045033
     37 HAT         -3.0410    -2.3420     0.2180 ha         1 6NL       0.140000
     38 HAP         -1.6110     1.4480    -1.3360 ha         1 6NL       0.141000
     39 HAY         -5.3420     3.3970     0.6230 h2         1 6NL       0.065200
     40 HAZ         -6.0540     3.1400    -1.0070 h2         1 6NL       0.065200
     41 HAV         -5.2120    -3.3970     0.2710 h1         1 6NL       0.045367
     42 HAW         -4.6500    -2.9650     1.9090 h1         1 6NL       0.045367
     43 HAX         -6.3850    -3.1550     1.5820 h1         1 6NL       0.045367
@<TRIPOS>BOND
     1     1     2 1   
     2     1    26 1   
     3     1    27 1   
     4     1    28 1   
     5     2     3 1   
     6     3     4 ar  
     7     3     7 ar  
     8     4     5 ar  
     9     4     6 1   
    10     5     9 ar  
    11     5    29 1   
    12     6    30 1   
    13     7     8 ar  
    14     7    31 1   
    15     8     9 ar  
    16     8    32 1   
    17     9    10 1   
    18    10    11 2   
    19    10    33 1   
    20    11    12 1   
    21    11    13 1   
    22    12    34 1   
    23    12    35 1   
    24    12    36 1   
    25    13    14 2   
    26    13    15 1   
    27    15    16 ar  
    28    15    17 ar  
    29    16    23 ar  
    30    16    37 1   
    31    17    18 ar  
    32    17    38 1   
    33    18    19 1   
    34    18    22 ar  
    35    19    20 1   
    36    20    21 1   
    37    20    39 1   
    38    20    40 1   
    39    21    22 1   
    40    22    23 ar  
    41    23    24 1   
    42    24    25 1   
    43    25    41 1   
    44    25    42 1   
    45    25    43 1   
@<TRIPOS>SUBSTRUCTURE
     1 6NL         1 TEMP              0 ****  ****    0 ROOT
