@<TRIPOS>MOLECULE
6NL
   43    45     1     0     0
SMALL
abcg2


@<TRIPOS>ATOM
      1 CAI          7.9600    -0.2550    -0.0750 c3         1 6NL       0.144900
      2 OAH          6.8860     0.6280     0.1780 os         1 6NL      -0.317100
      3 CAE          5.6360     0.1550     0.0660 ca         1 6NL       0.125100
      4 CAF          4.6060     1.0820     0.3180 ca         1 6NL       0.102100
      5 CAA          3.2860     0.6880     0.2400 ca         1 6NL      -0.158000
      6 OAG          4.9880     2.3370     0.6260 oh         1 6NL      -0.515100
      7 CAD          5.2960    -1.1430    -0.2870 ca         1 6NL      -0.175000
      8 CAC          3.9640    -1.5240    -0.3780 ca         1 6NL      -0.086000
      9 CAB          2.9350    -0.6280    -0.0960 ca         1 6NL      -0.066800
     10 CAJ          1.5640    -1.1140    -0.1900 ce         1 6NL      -0.091200
     11 CAK          0.4450    -0.6510     0.3950 cf         1 6NL      -0.197400
     12 CAM          0.3840     0.4730     1.3920 c3         1 6NL      -0.044900
     13 CAL         -0.8100    -1.4010     0.0930 c          1 6NL       0.586900
     14 OAN         -0.8070    -2.6080    -0.0590 o          1 6NL      -0.524100
     15 CAO         -2.0840    -0.6400    -0.0220 ca         1 6NL      -0.132600
     16 CAT         -3.2750    -1.3110     0.2620 ca         1 6NL      -0.147000
     17 CAP         -2.0830     0.6830    -0.4780 ca         1 6NL      -0.094000
     18 CAQ         -3.3140     1.2760    -0.6240 ca         1 6NL       0.071100
     19 OAW         -3.5990     2.5350    -1.0370 os         1 6NL      -0.343100
     20 CAX         -5.0080     2.5890    -1.1940 c5         1 6NL       0.369600
     21 OAY         -5.5440     1.4460    -0.5390 os         1 6NL      -0.324100
     22 CAR         -4.4930     0.6240    -0.3290 ca         1 6NL       0.030100
     23 CAS         -4.5140    -0.6830     0.1280 ca         1 6NL       0.147100
     24 OAU         -5.7110    -1.2280     0.3920 os         1 6NL      -0.320100
     25 CAV         -5.7450    -2.5690     0.8370 c3         1 6NL       0.143900
     26 HAK          7.9580    -1.1070     0.6090 h1         1 6NL       0.041367
     27 HAJ          7.9470    -0.6280    -1.1020 h1         1 6NL       0.041367
     28 HAI          8.8720     0.3170     0.0780 h1         1 6NL       0.041367
     29 HAA          2.5180     1.4320     0.4050 ha         1 6NL       0.117000
     30 HAG          4.2140     2.8880     0.7830 ho         1 6NL       0.459000
     31 HAD          6.0620    -1.8770    -0.4980 ha         1 6NL       0.122000
     32 HAC          3.7280    -2.5410    -0.6630 ha         1 6NL       0.118000
     33 HAL          1.4560    -1.9940    -0.8170 ha         1 6NL       0.188000
     34 HAO          0.3590     1.4630     0.9340 hc         1 6NL       0.045033
     35 HAN         -0.5030     0.3940     2.0180 hc         1 6NL       0.045033
     36 HAM          1.2540     0.4430     2.0480 hc         1 6NL       0.045033
     37 HAT         -3.2190    -2.3370     0.5980 ha         1 6NL       0.140000
     38 HAP         -1.1720     1.2070    -0.7300 ha         1 6NL       0.141000
     39 HAY         -5.3990     3.4950    -0.7320 h2         1 6NL       0.065200
     40 HAZ         -5.2670     2.5600    -2.2590 h2         1 6NL       0.065200
     41 HAV         -5.3140    -3.2530     0.1000 h1         1 6NL       0.045367
     42 HAW         -5.2220    -2.6980     1.7880 h1         1 6NL       0.045367
     43 HAX         -6.7940    -2.8190     0.9760 h1         1 6NL       0.045367
@<TRIPOS>BOND
     1     1     2 1   
     2     1    26 1   
     3     1    27 1   
     4     1    28 1   
     5     2     3 1   
     6     3     4 ar  
     7     3     7 ar  
     8     4     5 ar  
     9     4     6 1   
    10     5     9 ar  
    11     5    29 1   
    12     6    30 1   
    13     7     8 ar  
    14     7    31 1   
    15     8     9 ar  
    16     8    32 1   
    17     9    10 1   
    18    10    11 2   
    19    10    33 1   
    20    11    12 1   
    21    11    13 1   
    22    12    34 1   
    23    12    35 1   
    24    12    36 1   
    25    13    14 2   
    26    13    15 1   
    27    15    16 ar  
    28    15    17 ar  
    29    16    23 ar  
    30    16    37 1   
    31    17    18 ar  
    32    17    38 1   
    33    18    19 1   
    34    18    22 ar  
    35    19    20 1   
    36    20    21 1   
    37    20    39 1   
    38    20    40 1   
    39    21    22 1   
    40    22    23 ar  
    41    23    24 1   
    42    24    25 1   
    43    25    41 1   
    44    25    42 1   
    45    25    43 1   
@<TRIPOS>SUBSTRUCTURE
     1 6NL         1 TEMP              0 ****  ****    0 ROOT
