@<TRIPOS>MOLECULE
6NM
   31    33     1     0     0
SMALL
No Charge or Current Charge


@<TRIPOS>ATOM
      1 C1           1.7590     2.8150    -1.2410 ca         1 6NM      -0.116000
      2 C2           0.3840     2.7110    -0.9750 ca         1 6NM      -0.076000
      3 C6           2.6320     1.7810    -0.8710 ca         1 6NM      -0.050000
      4 C17         -2.7440    -1.9930     0.7250 ca         1 6NM      -0.161500
      5 C21         -1.2530    -1.4210    -1.0650 ca         1 6NM      -0.161500
      6 C4           0.7520     0.5460     0.0540 ca         1 6NM      -0.034000
      7 C18         -2.4580    -3.3440     0.4720 ca         1 6NM       0.336900
      8 C20         -1.0220    -2.7930    -1.2530 ca         1 6NM       0.336900
      9 C13         -3.5850     0.9590     0.7850 cc         1 6NM       0.256900
     10 C3          -0.1420     1.5630    -0.3480 ca         1 6NM      -0.038000
     11 C16         -2.1110    -0.9920    -0.0340 ca         1 6NM       0.043000
     12 C12         -2.4290     0.4250     0.1920 cc         1 6NM      -0.150000
     13 C5           2.1340     0.6340    -0.2180 ca         1 6NM      -0.196300
     14 C11         -1.5920     1.4890    -0.0590 cd         1 6NM      -0.081000
     15 C7           3.0710    -0.4950     0.2270 c3         1 6NM       0.357300
     16 N19         -1.6070    -3.7490    -0.4980 nb         1 6NM      -0.664000
     17 N15         -2.3580     2.6090     0.3140 na         1 6NM       0.005800
     18 N14         -3.5960     2.2720     0.8610 nd         1 6NM      -0.507800
     19 F8           4.2420    -0.5000    -0.4500 f          1 6NM      -0.110333
     20 F9           3.3740    -0.3920     1.5400 f          1 6NM      -0.110333
     21 F10          2.5140    -1.7140     0.0440 f          1 6NM      -0.110333
     22 H1           2.1500     3.7010    -1.7360 ha         1 6NM       0.126000
     23 H2          -0.2740     3.5200    -1.2820 ha         1 6NM       0.120000
     24 H6           3.6950     1.8840    -1.0820 ha         1 6NM       0.136000
     25 H18         -2.9280    -4.1300     1.0630 h4         1 6NM       0.019100
     26 H21         -0.7830    -0.7110    -1.7380 ha         1 6NM       0.124500
     27 H20         -0.3570    -3.1390    -2.0440 h4         1 6NM       0.019100
     28 H4           0.3800    -0.3050     0.6170 ha         1 6NM       0.143000
     29 H13         -4.4470     0.4140     1.1460 h4         1 6NM       0.044100
     30 H15         -2.0490     3.5780     0.2760 hn         1 6NM       0.376000
     31 H17         -3.4380    -1.7390     1.5200 ha         1 6NM       0.124500
@<TRIPOS>BOND
     1     1     2 ar  
     2     1     3 ar  
     3     1    22 1   
     4     2    10 ar  
     5     2    23 1   
     6     3    13 ar  
     7     3    24 1   
     8     4     7 ar  
     9     4    11 ar  
    10     4    31 1   
    11     5     8 ar  
    12     5    11 ar  
    13     5    26 1   
    14     6    10 ar  
    15     6    13 ar  
    16     6    28 1   
    17     7    16 ar  
    18     7    25 1   
    19     8    16 ar  
    20     8    27 1   
    21     9    12 1   
    22     9    18 2   
    23     9    29 1   
    24    10    14 1   
    25    11    12 1   
    26    12    14 2   
    27    13    15 1   
    28    14    17 1   
    29    15    19 1   
    30    15    20 1   
    31    15    21 1   
    32    17    18 1   
    33    17    30 1   
@<TRIPOS>SUBSTRUCTURE
     1 6NM         1 TEMP              0 ****  ****    0 ROOT
