@<TRIPOS>MOLECULE
6NM
   31    33     1     0     0
SMALL
bcc


@<TRIPOS>ATOM
      1 C1           1.7000     2.6830    -1.4150 ca         1 6NM      -0.134000
      2 C2           0.3620     2.5950    -1.0670 ca         1 6NM      -0.094000
      3 C6           2.6090     1.7390    -0.9580 ca         1 6NM      -0.068000
      4 C17         -2.7160    -2.0270     0.7080 ca         1 6NM      -0.244800
      5 C21         -1.3640    -1.4290    -1.1520 ca         1 6NM      -0.244800
      6 C4           0.8310     0.6220     0.2230 ca         1 6NM      -0.052000
      7 C18         -2.5030    -3.3530     0.3680 ca         1 6NM       0.402200
      8 C20         -1.2070    -2.7820    -1.4010 ca         1 6NM       0.402200
      9 C13         -3.5600     0.9590     0.7200 cc         1 6NM       0.322200
     10 C3          -0.0840     1.5610    -0.2420 ca         1 6NM      -0.038000
     11 C16         -2.1340    -1.0220    -0.0630 ca         1 6NM       0.043000
     12 C12         -2.3570     0.3850     0.2580 cc         1 6NM      -0.215300
     13 C5           2.1670     0.7070    -0.1420 ca         1 6NM      -0.196300
     14 C11         -1.4910     1.4640     0.1440 cd         1 6NM      -0.030300
     15 C7           3.1130    -0.3250     0.3910 c3         1 6NM       0.721200
     16 N19         -1.7600    -3.7390    -0.6630 nb         1 6NM      -0.664000
     17 N15         -2.2040     2.5430     0.5170 na         1 6NM       0.005400
     18 N14         -3.4510     2.2620     0.8680 nd         1 6NM      -0.507800
     19 F8           4.3350    -0.2270    -0.1390 f          1 6NM      -0.231633
     20 F9           3.2520    -0.2250     1.7210 f          1 6NM      -0.231633
     21 F10          2.6770    -1.5680     0.1460 f          1 6NM      -0.231633
     22 H1           2.0370     3.4860    -2.0540 ha         1 6NM       0.144000
     23 H2          -0.3380     3.3220    -1.4560 ha         1 6NM       0.138000
     24 H6           3.6470     1.8200    -1.2480 ha         1 6NM       0.154000
     25 H18         -2.9490    -4.1390     0.9670 h4         1 6NM       0.019100
     26 H21         -0.8980    -0.7100    -1.8120 ha         1 6NM       0.142500
     27 H20         -0.6090    -3.1060    -2.2450 h4         1 6NM       0.019100
     28 H4           0.4880    -0.1730     0.8750 ha         1 6NM       0.161000
     29 H13         -4.4970     0.4600     0.9180 h4         1 6NM       0.044100
     30 H15         -1.8640     3.4900     0.6020 hn         1 6NM       0.325700
     31 H17         -3.3200    -1.7880     1.5740 ha         1 6NM       0.142500
@<TRIPOS>BOND
     1     1     2 ar  
     2     1     3 ar  
     3     1    22 1   
     4     2    10 ar  
     5     2    23 1   
     6     3    13 ar  
     7     3    24 1   
     8     4     7 ar  
     9     4    11 ar  
    10     4    31 1   
    11     5     8 ar  
    12     5    11 ar  
    13     5    26 1   
    14     6    10 ar  
    15     6    13 ar  
    16     6    28 1   
    17     7    16 ar  
    18     7    25 1   
    19     8    16 ar  
    20     8    27 1   
    21     9    12 1   
    22     9    18 2   
    23     9    29 1   
    24    10    14 1   
    25    11    12 1   
    26    12    14 2   
    27    13    15 1   
    28    14    17 1   
    29    15    19 1   
    30    15    20 1   
    31    15    21 1   
    32    17    18 1   
    33    17    30 1   
@<TRIPOS>SUBSTRUCTURE
     1 6NM         1 TEMP              0 ****  ****    0 ROOT
