@<TRIPOS>MOLECULE
6NN
   62    62     1     0     0
SMALL
No Charge or Current Charge


@<TRIPOS>ATOM
      1 C1           2.4080    -3.9700    -0.8220 ca         1 6NN      -0.085500
      2 C2           2.6970    -4.9240     0.1690 ca         1 6NN      -0.119500
      3 C3           3.4500    -4.5610     1.2980 ca         1 6NN      -0.110000
      4 C9           1.3780     0.4880    -1.9210 c          1 6NN       0.621100
      5 C12          0.1220     2.6770    -1.6400 c3         1 6NN      -0.265000
      6 C20         -6.3170     4.1710     0.9040 c3         1 6NN      -0.085100
      7 C21         -4.4600     3.6600     2.5660 c3         1 6NN      -0.085100
      8 C22         -2.5400     1.1070    -0.6470 c          1 6NN       0.556100
      9 C27         -0.1770    -1.8520     1.6060 c3         1 6NN      -0.103100
     10 P13         -0.4710     3.8890    -0.3640 p5         1 6NN       1.367300
     11 C6           2.8670    -2.6440    -0.6890 ca         1 6NN      -0.087300
     12 C4           3.9170    -3.2430     1.4330 ca         1 6NN      -0.119500
     13 C5           3.6280    -2.2880     0.4430 ca         1 6NN      -0.085500
     14 N16         -2.0980     3.6590    -0.4050 n7         1 6NN      -0.977500
     15 C17         -2.8130     2.4520     0.1200 c3         1 6NN       0.175500
     16 C18         -4.3420     2.7360     0.1510 c3         1 6NN      -0.064400
     17 C25         -1.6860    -1.2470    -0.3900 c3         1 6NN       0.102000
     18 C26         -1.3970    -2.2680     0.7410 c3         1 6NN      -0.070700
     19 C28         -1.2430    -3.6930     0.1410 c3         1 6NN      -0.072400
     20 C29         -1.0540    -4.8230     1.1760 c3         1 6NN      -0.086100
     21 O14         -0.2190     5.2770    -0.8370 o          1 6NN      -0.817000
     22 N11          0.7610     1.4280    -1.1400 ns         1 6NN      -0.439900
     23 O10          1.4940     0.5440    -3.1360 o          1 6NN      -0.573000
     24 O8           1.8400    -0.5110    -1.1220 os         1 6NN      -0.467100
     25 H1           1.8220    -4.2620    -1.6900 ha         1 6NN       0.116000
     26 H2           2.3340    -5.9440     0.0630 ha         1 6NN       0.107500
     27 H3           3.6720    -5.2990     2.0650 ha         1 6NN       0.103000
     28 H4           3.4620    -1.2520    -2.2220 h1         1 6NN       0.050200
     29 H5           1.9080    -2.0580    -2.5300 h1         1 6NN       0.050200
     30 H6          -0.7100     2.4220    -2.3040 h1         1 6NN       0.050700
     31 H7           0.8640     3.2230    -2.2350 h1         1 6NN       0.050700
     32 H8          -4.2810     4.8130     0.7610 hc         1 6NN       0.063700
     33 H9          -6.6300     5.0270     1.5140 hc         1 6NN       0.026700
     34 H10         -6.5540     4.3990    -0.1430 hc         1 6NN       0.026700
     35 H11         -6.9070     3.2980     1.2070 hc         1 6NN       0.026700
     36 H12         -4.9000     2.7210     2.9230 hc         1 6NN       0.026700
     37 H13         -3.3760     3.6170     2.7210 hc         1 6NN       0.026700
     38 H14         -4.8470     4.4760     3.1880 hc         1 6NN       0.026700
     39 H16          0.7450    -1.8780     1.0160 hc         1 6NN       0.044033
     40 H17         -0.2950    -0.8390     2.0080 hc         1 6NN       0.044033
     41 H18          4.5010    -2.9600     2.3070 ha         1 6NN       0.107500
     42 H19          3.9870    -1.2670     0.5580 ha         1 6NN       0.116000
     43 H20         -2.2850     3.7520    -1.4000 hn         1 6NN       0.443000
     44 H21         -2.4960     2.2740     1.1560 h1         1 6NN       0.079700
     45 H22         -4.8570     1.8200     0.4670 hc         1 6NN       0.038700
     46 H23         -4.6800     2.9370    -0.8730 hc         1 6NN       0.038700
     47 H25         -2.5440    -1.5980    -0.9780 h1         1 6NN       0.041200
     48 H26         -0.8200    -1.1840    -1.0610 h1         1 6NN       0.041200
     49 H27         -2.2760    -2.2830     1.3970 hc         1 6NN       0.048700
     50 H28         -2.1370    -3.9230    -0.4510 hc         1 6NN       0.033200
     51 H29         -0.3990    -3.7040    -0.5570 hc         1 6NN       0.033200
     52 H30         -1.0720    -5.7990     0.6760 hc         1 6NN       0.026367
     53 H31         -0.0910    -4.7310     1.6920 hc         1 6NN       0.026367
     54 H32         -1.8570    -4.8060     1.9230 hc         1 6NN       0.026367
     55 H34          0.7740     1.2400    -0.1430 hn         1 6NN       0.344500
     56 C7           2.5330    -1.6020    -1.7510 c3         1 6NN       0.228900
     57 O23         -2.8080     0.9450    -1.8330 o          1 6NN      -0.647100
     58 C19         -4.8040     3.9010     1.0760 c3         1 6NN      -0.055700
     59 O15          0.0240     3.5710     1.0040 o          1 6NN      -0.817000
     60 N24         -1.9920     0.0930     0.1140 ns         1 6NN      -0.508900
     61 H15         -0.0520    -2.5240     2.4630 hc         1 6NN       0.044033
     62 H24         -1.8110     0.2940     1.0900 hn         1 6NN       0.362500
@<TRIPOS>BOND
     1     1     2 ar  
     2     1    11 ar  
     3     1    25 1   
     4     2     3 ar  
     5     2    26 1   
     6     3    12 ar  
     7     3    27 1   
     8     4    22 1   
     9     4    23 2   
    10     4    24 1   
    11     5    10 1   
    12     5    22 1   
    13     5    30 1   
    14     5    31 1   
    15     6    33 1   
    16     6    34 1   
    17     6    35 1   
    18     6    58 1   
    19     7    36 1   
    20     7    37 1   
    21     7    38 1   
    22     7    58 1   
    23     8    15 1   
    24     8    57 2   
    25     8    60 1   
    26     9    18 1   
    27     9    39 1   
    28     9    40 1   
    29     9    61 1   
    30    10    14 1   
    31    10    21 1   
    32    10    59 1   
    33    11    13 ar  
    34    11    56 1   
    35    12    13 ar  
    36    12    41 1   
    37    13    42 1   
    38    14    15 1   
    39    14    43 1   
    40    15    16 1   
    41    15    44 1   
    42    16    45 1   
    43    16    46 1   
    44    16    58 1   
    45    17    18 1   
    46    17    47 1   
    47    17    48 1   
    48    17    60 1   
    49    18    19 1   
    50    18    49 1   
    51    19    20 1   
    52    19    50 1   
    53    19    51 1   
    54    20    52 1   
    55    20    53 1   
    56    20    54 1   
    57    22    55 1   
    58    24    56 1   
    59    28    56 1   
    60    29    56 1   
    61    32    58 1   
    62    60    62 1   
@<TRIPOS>SUBSTRUCTURE
     1 6NN         1 TEMP              0 ****  ****    0 ROOT
