@<TRIPOS>MOLECULE
6NN
   62    62     1     0     0
SMALL
abcg2


@<TRIPOS>ATOM
      1 C1           2.6600    -3.6300    -0.6240 ca         1 6NN      -0.085500
      2 C2           2.8870    -4.7010     0.2270 ca         1 6NN      -0.119500
      3 C3           4.0470    -4.7470     0.9920 ca         1 6NN      -0.110000
      4 C9           1.7290     0.3500    -1.5690 c          1 6NN       0.621100
      5 C12         -0.0530     1.9770    -1.2360 c3         1 6NN      -0.265000
      6 C20         -6.3730     4.7960     0.5960 c3         1 6NN      -0.085100
      7 C21         -4.5760     4.2870     2.2700 c3         1 6NN      -0.085100
      8 C22         -3.3770     0.8850    -0.3570 c          1 6NN       0.556100
      9 C27         -0.2840    -1.7130     1.3160 c3         1 6NN      -0.103100
     10 P13         -0.7520     2.9700     0.1770 p5         1 6NN       1.367300
     11 C6           3.5840    -2.5920    -0.7210 ca         1 6NN      -0.087300
     12 C4           4.9750    -3.7190     0.8990 ca         1 6NN      -0.119500
     13 C5           4.7420    -2.6460     0.0470 ca         1 6NN      -0.085500
     14 N16         -2.3980     3.1480    -0.1910 n7         1 6NN      -0.977500
     15 C17         -3.4350     2.2660     0.3140 c3         1 6NN       0.175500
     16 C18         -4.8100     2.9010     0.1530 c3         1 6NN      -0.064400
     17 C25         -2.1250    -1.2320    -0.3520 c3         1 6NN       0.102000
     18 C26         -1.5990    -2.1960     0.7120 c3         1 6NN      -0.070700
     19 C28         -1.4560    -3.5870     0.0890 c3         1 6NN      -0.072400
     20 C29         -1.0280    -4.6750     1.0650 c3         1 6NN      -0.086100
     21 O14         -0.0910     4.3210     0.1640 o          1 6NN      -0.817000
     22 N11          0.9920     1.1090    -0.7430 ns         1 6NN      -0.439900
     23 O10          1.7220     0.4270    -2.7820 o          1 6NN      -0.573000
     24 O8           2.4910    -0.5100    -0.8770 os         1 6NN      -0.467100
     25 H1           1.7590    -3.6060    -1.2260 ha         1 6NN       0.116000
     26 H2           2.1630    -5.5030     0.2900 ha         1 6NN       0.107500
     27 H3           4.2290    -5.5840     1.6530 ha         1 6NN       0.103000
     28 H4           4.2320    -0.9280    -1.9170 h1         1 6NN       0.050200
     29 H5           2.7900    -1.7470    -2.5220 h1         1 6NN       0.050200
     30 H6          -0.8430     1.3940    -1.7200 h1         1 6NN       0.050700
     31 H7           0.3430     2.6590    -1.9900 h1         1 6NN       0.050700
     32 H8          -4.2710     4.9680     0.2740 hc         1 6NN       0.063700
     33 H9          -6.4830     5.8160     0.9700 hc         1 6NN       0.026700
     34 H10         -6.6540     4.8000    -0.4600 hc         1 6NN       0.026700
     35 H11         -7.0950     4.1700     1.1270 hc         1 6NN       0.026700
     36 H12         -5.1750     3.5650     2.8300 hc         1 6NN       0.026700
     37 H13         -3.5240     4.0450     2.4250 hc         1 6NN       0.026700
     38 H14         -4.7510     5.2710     2.7110 hc         1 6NN       0.026700
     39 H16          0.5090    -1.7090     0.5660 hc         1 6NN       0.044033
     40 H17         -0.3530    -0.7040     1.7280 hc         1 6NN       0.044033
     41 H18          5.8820    -3.7510     1.4880 ha         1 6NN       0.107500
     42 H19          5.4700    -1.8470    -0.0230 ha         1 6NN       0.116000
     43 H20         -2.6220     3.5820    -1.0770 hn         1 6NN       0.443000
     44 H21         -3.2470     2.1170     1.3790 h1         1 6NN       0.079700
     45 H22         -5.5540     2.2280     0.5930 hc         1 6NN       0.038700
     46 H23         -5.0550     2.9740    -0.9110 hc         1 6NN       0.038700
     47 H25         -3.0130    -1.6570    -0.8220 h1         1 6NN       0.041200
     48 H26         -1.3700    -1.1210    -1.1430 h1         1 6NN       0.041200
     49 H27         -2.3520    -2.2550     1.5070 hc         1 6NN       0.048700
     50 H28         -2.4140    -3.8710    -0.3570 hc         1 6NN       0.033200
     51 H29         -0.7400    -3.5370    -0.7390 hc         1 6NN       0.033200
     52 H30         -1.0240    -5.6510     0.5780 hc         1 6NN       0.026367
     53 H31         -0.0240    -4.5060     1.4560 hc         1 6NN       0.026367
     54 H32         -1.7100    -4.7320     1.9150 hc         1 6NN       0.026367
     55 H34          0.9740     0.8860     0.2420 hn         1 6NN       0.344500
     56 C7           3.3060    -1.4240    -1.6180 c3         1 6NN       0.228900
     57 O23         -4.0710     0.5850    -1.3210 o          1 6NN      -0.647100
     58 C19         -4.9500     4.2840     0.7920 c3         1 6NN      -0.055700
     59 O15         -0.6670     2.0860     1.4100 o          1 6NN      -0.817000
     60 N24         -2.4800     0.0560     0.2020 ns         1 6NN      -0.508900
     61 H15          0.0420    -2.3540     2.1350 hc         1 6NN       0.044033
     62 H24         -1.8370     0.4860     0.8600 hn         1 6NN       0.362500
@<TRIPOS>BOND
     1     1     2 ar  
     2     1    11 ar  
     3     1    25 1   
     4     2     3 ar  
     5     2    26 1   
     6     3    12 ar  
     7     3    27 1   
     8     4    22 1   
     9     4    23 2   
    10     4    24 1   
    11     5    10 1   
    12     5    22 1   
    13     5    30 1   
    14     5    31 1   
    15     6    33 1   
    16     6    34 1   
    17     6    35 1   
    18     6    58 1   
    19     7    36 1   
    20     7    37 1   
    21     7    38 1   
    22     7    58 1   
    23     8    15 1   
    24     8    57 2   
    25     8    60 1   
    26     9    18 1   
    27     9    39 1   
    28     9    40 1   
    29     9    61 1   
    30    10    14 1   
    31    10    21 1   
    32    10    59 1   
    33    11    13 ar  
    34    11    56 1   
    35    12    13 ar  
    36    12    41 1   
    37    13    42 1   
    38    14    15 1   
    39    14    43 1   
    40    15    16 1   
    41    15    44 1   
    42    16    45 1   
    43    16    46 1   
    44    16    58 1   
    45    17    18 1   
    46    17    47 1   
    47    17    48 1   
    48    17    60 1   
    49    18    19 1   
    50    18    49 1   
    51    19    20 1   
    52    19    50 1   
    53    19    51 1   
    54    20    52 1   
    55    20    53 1   
    56    20    54 1   
    57    22    55 1   
    58    24    56 1   
    59    28    56 1   
    60    29    56 1   
    61    32    58 1   
    62    60    62 1   
@<TRIPOS>SUBSTRUCTURE
     1 6NN         1 TEMP              0 ****  ****    0 ROOT
