@<TRIPOS>MOLECULE
6NP
   62    67     1     0     0
SMALL
No Charge or Current Charge


@<TRIPOS>ATOM
      1 C1           0.7120    -0.3620    -0.4940 ca         1 6NP       0.551900
      2 N1           0.2420     0.9060    -0.6110 nb         1 6NP      -0.398000
      3 N2          -1.0740     1.1930    -0.4960 nb         1 6NP      -0.276000
      4 C2          -2.0030     0.2370    -0.2490 cp         1 6NP       0.306500
      5 C3          -1.5250    -1.1520    -0.0510 cq         1 6NP      -0.006000
      6 C5          -2.4080    -2.2690     0.4370 cq         1 6NP      -0.008000
      7 C6          -2.2620    -3.5860    -0.0430 ca         1 6NP      -0.146000
      8 C7          -3.1040    -4.6000     0.4450 ca         1 6NP       0.333900
      9 N3          -4.0630    -4.3810     1.3730 nb         1 6NP      -0.659000
     10 C8          -4.2020    -3.1210     1.8420 ca         1 6NP       0.333900
     11 C9          -3.4040    -2.0490     1.4100 ca         1 6NP      -0.146000
     12 C4          -0.1520    -1.4330    -0.1990 ca         1 6NP      -0.167000
     13 C10          5.4930     1.4310    -0.3390 c3         1 6NP      -0.032100
     14 C11          7.9700     1.0100    -0.7780 ca         1 6NP      -0.107000
     15 C12          9.2700     0.7170    -0.3300 ca         1 6NP      -0.110500
     16 C13          9.5170     0.5290     1.0400 ca         1 6NP      -0.110000
     17 C14          8.4620     0.6340     1.9620 ca         1 6NP      -0.110500
     18 C15          7.1620     0.9270     1.5150 ca         1 6NP      -0.107000
     19 C16          6.9080     1.1160     0.1420 ca         1 6NP      -0.088300
     20 C17         -3.4370     0.6830    -0.3130 cp         1 6NP      -0.139500
     21 C18         -3.8280     1.9640     0.1620 ca         1 6NP      -0.061000
     22 C19         -5.1690     2.3850     0.1030 ca         1 6NP      -0.043000
     23 C20         -6.1510     1.5320    -0.4440 ca         1 6NP      -0.030000
     24 C21         -5.7810     0.2670    -0.9320 ca         1 6NP      -0.102000
     25 C22         -4.4410    -0.1490    -0.8700 ca         1 6NP      -0.091000
     26 C23         -5.5370     3.6550     0.5890 ca         1 6NP      -0.092000
     27 C24         -6.8790     4.0710     0.5290 ca         1 6NP      -0.110000
     28 C25         -7.8560     3.2210    -0.0160 ca         1 6NP      -0.103000
     29 C26         -7.4940     1.9530    -0.5030 ca         1 6NP      -0.101000
     30 C27          4.5240     0.2180    -0.2660 c6         1 6NP       0.162500
     31 C28          3.0470     0.6280    -0.6050 c6         1 6NP       0.214800
     32 N4           2.1080    -0.5460    -0.6300 nh         1 6NP      -0.759300
     33 C29          2.6320    -1.6910    -1.4460 c6         1 6NP       0.209800
     34 C30          4.1140    -2.0530    -1.0990 c6         1 6NP       0.150800
     35 N5           5.0220    -0.8740    -1.1470 n7         1 6NP      -0.861400
     36 H6          -1.5220    -3.8380    -0.7960 ha         1 6NP       0.130000
     37 H7          -3.0090    -5.6220     0.0790 h4         1 6NP       0.021600
     38 H8          -4.9760    -2.9660     2.5920 h4         1 6NP       0.021600
     39 H9          -3.5660    -1.0670     1.8440 ha         1 6NP       0.130000
     40 H4           0.2500    -2.4240    -0.0250 ha         1 6NP       0.133000
     41 H101         5.5200     1.8180    -1.3660 hc         1 6NP       0.059200
     42 H102         5.0900     2.2510     0.2690 hc         1 6NP       0.059200
     43 H12         10.0860     0.6360    -1.0460 ha         1 6NP       0.113000
     44 H13         10.5230     0.3030     1.3860 ha         1 6NP       0.113000
     45 H14          8.6520     0.4900     3.0240 ha         1 6NP       0.113000
     46 H15          6.3520     1.0070     2.2360 ha         1 6NP       0.114500
     47 H18         -3.0810     2.6290     0.5910 ha         1 6NP       0.127000
     48 H21         -6.5300    -0.3940    -1.3630 ha         1 6NP       0.115000
     49 H22         -4.1780    -1.1250    -1.2720 ha         1 6NP       0.116000
     50 H23         -4.7870     4.3190     1.0120 ha         1 6NP       0.115000
     51 H24         -7.1600     5.0520     0.9050 ha         1 6NP       0.113000
     52 H25         -8.8940     3.5440    -0.0620 ha         1 6NP       0.113000
     53 H26         -8.2550     1.3010    -0.9240 ha         1 6NP       0.113000
     54 H27          4.5330    -0.1480     0.7720 h1         1 6NP       0.033700
     55 H281         3.0340     1.1350    -1.5810 h1         1 6NP       0.064200
     56 H282         2.7230     1.3620     0.1480 h1         1 6NP       0.064200
     57 H291         2.5770    -1.4330    -2.5140 h1         1 6NP       0.047200
     58 H292         2.0230    -2.5940    -1.3040 h1         1 6NP       0.047200
     59 H301         4.1430    -2.4870    -0.0880 h1         1 6NP       0.040700
     60 H302         4.4750    -2.8230    -1.7960 h1         1 6NP       0.040700
     61 HN5          5.9570    -1.1510    -0.8240 hn         1 6NP       0.425000
     62 H11          7.7890     1.1510    -1.8420 ha         1 6NP       0.114500
@<TRIPOS>BOND
     1     1     2 ar  
     2     1    12 ar  
     3     1    32 1   
     4     2     3 ar  
     5     3     4 ar  
     6     4     5 2   
     7     4    20 1   
     8     5     6 1   
     9     5    12 1   
    10     6     7 1   
    11     6    11 2   
    12     7     8 ar  
    13     7    36 1   
    14     8     9 ar  
    15     8    37 1   
    16     9    10 ar  
    17    10    11 ar  
    18    10    38 1   
    19    11    39 1   
    20    12    40 1   
    21    13    19 1   
    22    13    30 1   
    23    13    41 1   
    24    13    42 1   
    25    14    15 ar  
    26    14    19 ar  
    27    14    62 1   
    28    15    16 ar  
    29    15    43 1   
    30    16    17 ar  
    31    16    44 1   
    32    17    18 ar  
    33    17    45 1   
    34    18    19 ar  
    35    18    46 1   
    36    20    21 ar  
    37    20    25 ar  
    38    21    22 ar  
    39    21    47 1   
    40    22    23 ar  
    41    22    26 ar  
    42    23    24 ar  
    43    23    29 ar  
    44    24    25 ar  
    45    24    48 1   
    46    25    49 1   
    47    26    27 ar  
    48    26    50 1   
    49    27    28 ar  
    50    27    51 1   
    51    28    29 ar  
    52    28    52 1   
    53    29    53 1   
    54    30    31 1   
    55    30    35 1   
    56    30    54 1   
    57    31    32 1   
    58    31    55 1   
    59    31    56 1   
    60    32    33 1   
    61    33    34 1   
    62    33    57 1   
    63    33    58 1   
    64    34    35 1   
    65    34    59 1   
    66    34    60 1   
    67    35    61 1   
@<TRIPOS>SUBSTRUCTURE
     1 6NP         1 TEMP              0 ****  ****    0 ROOT
