@<TRIPOS>MOLECULE
6NP
   62    67     1     0     0
SMALL
abcg2


@<TRIPOS>ATOM
      1 C1           0.7750    -0.4430    -0.2470 ca         1 6NP       0.551900
      2 N1           0.3560     0.8190    -0.3430 nb         1 6NP      -0.398000
      3 N2          -0.9200     1.1070    -0.3280 nb         1 6NP      -0.276000
      4 C2          -1.8510     0.1800    -0.2150 cp         1 6NP       0.306500
      5 C3          -1.4940    -1.1770    -0.0490 cq         1 6NP      -0.006000
      6 C5          -2.4800    -2.2470     0.2000 cq         1 6NP      -0.008000
      7 C6          -2.4410    -3.4320    -0.5270 ca         1 6NP      -0.146000
      8 C7          -3.3690    -4.4230    -0.2430 ca         1 6NP       0.333900
      9 N3          -4.2990    -4.3080     0.6970 nb         1 6NP      -0.659000
     10 C8          -4.3280    -3.1780     1.3950 ca         1 6NP       0.333900
     11 C9          -3.4540    -2.1240     1.1870 ca         1 6NP      -0.146000
     12 C4          -0.1600    -1.4860    -0.0790 ca         1 6NP      -0.167000
     13 C10          5.3150     1.3640    -0.6010 c3         1 6NP      -0.032100
     14 C11          7.7250     0.7540    -1.0290 ca         1 6NP      -0.107000
     15 C12          9.0360     0.5820    -0.6030 ca         1 6NP      -0.110500
     16 C13          9.3830     0.8610     0.7120 ca         1 6NP      -0.110000
     17 C14          8.4110     1.3150     1.5960 ca         1 6NP      -0.110500
     18 C15          7.1040     1.4860     1.1650 ca         1 6NP      -0.107000
     19 C16          6.7420     1.2080    -0.1530 ca         1 6NP      -0.088300
     20 C17         -3.2470     0.6560    -0.2900 cp         1 6NP      -0.139500
     21 C18         -3.6360     1.7670     0.4160 ca         1 6NP      -0.061000
     22 C19         -4.9570     2.2610     0.3320 ca         1 6NP      -0.043000
     23 C20         -5.8910     1.6030    -0.5090 ca         1 6NP      -0.030000
     24 C21         -5.4640     0.4680    -1.2380 ca         1 6NP      -0.102000
     25 C22         -4.1840     0.0060    -1.1300 ca         1 6NP      -0.091000
     26 C23         -5.3760     3.3970     1.0650 ca         1 6NP      -0.092000
     27 C24         -6.6600     3.8570     0.9640 ca         1 6NP      -0.110000
     28 C25         -7.5880     3.2030     0.1250 ca         1 6NP      -0.103000
     29 C26         -7.2110     2.1010    -0.5940 ca         1 6NP      -0.101000
     30 C27          4.4250     0.2070    -0.1420 c6         1 6NP       0.162500
     31 C28          2.9950     0.4620    -0.5970 c6         1 6NP       0.214800
     32 N4           2.1220    -0.6590    -0.2770 nh         1 6NP      -0.759300
     33 C29          2.6390    -1.9570    -0.6880 c6         1 6NP       0.209800
     34 C30          4.0660    -2.1390    -0.2150 c6         1 6NP       0.150800
     35 N5           4.8880    -1.0490    -0.6950 n7         1 6NP      -0.861400
     36 H6          -1.7140    -3.5800    -1.3150 ha         1 6NP       0.130000
     37 H7          -3.3570    -5.3490    -0.8060 h4         1 6NP       0.021600
     38 H8          -5.0880    -3.1020     2.1640 h4         1 6NP       0.021600
     39 H9          -3.5290    -1.2330     1.7940 ha         1 6NP       0.130000
     40 H4           0.1520    -2.5080     0.0760 ha         1 6NP       0.133000
     41 H101         5.2690     1.4330    -1.6910 hc         1 6NP       0.059200
     42 H102         4.9020     2.2950    -0.2030 hc         1 6NP       0.059200
     43 H12          9.7870     0.2310    -1.3000 ha         1 6NP       0.113000
     44 H13         10.4050     0.7300     1.0450 ha         1 6NP       0.113000
     45 H14          8.6730     1.5400     2.6220 ha         1 6NP       0.113000
     46 H15          6.3520     1.8430     1.8600 ha         1 6NP       0.114500
     47 H18         -2.9300     2.2740     1.0620 ha         1 6NP       0.127000
     48 H21         -6.1660    -0.0300    -1.8950 ha         1 6NP       0.115000
     49 H22         -3.8790    -0.8550    -1.7110 ha         1 6NP       0.116000
     50 H23         -4.6640     3.8970     1.7110 ha         1 6NP       0.115000
     51 H24         -6.9710     4.7280     1.5270 ha         1 6NP       0.113000
     52 H25         -8.6010     3.5770     0.0540 ha         1 6NP       0.113000
     53 H26         -7.9210     1.5990    -1.2400 ha         1 6NP       0.113000
     54 H27          4.4260     0.1870     0.9630 h1         1 6NP       0.033700
     55 H281         2.9830     0.6540    -1.6790 h1         1 6NP       0.064200
     56 H282         2.6240     1.3570    -0.1050 h1         1 6NP       0.064200
     57 H291         2.5920    -2.0560    -1.7800 h1         1 6NP       0.047200
     58 H292         2.0430    -2.7590    -0.2590 h1         1 6NP       0.047200
     59 H301         4.0670    -2.2210     0.8840 h1         1 6NP       0.040700
     60 H302         4.4430    -3.0830    -0.6120 h1         1 6NP       0.040700
     61 HN5          5.8510    -1.2080    -0.4250 hn         1 6NP       0.425000
     62 H11          7.4620     0.5340    -2.0580 ha         1 6NP       0.114500
@<TRIPOS>BOND
     1     1     2 ar  
     2     1    12 ar  
     3     1    32 1   
     4     2     3 ar  
     5     3     4 ar  
     6     4     5 2   
     7     4    20 1   
     8     5     6 1   
     9     5    12 1   
    10     6     7 1   
    11     6    11 2   
    12     7     8 ar  
    13     7    36 1   
    14     8     9 ar  
    15     8    37 1   
    16     9    10 ar  
    17    10    11 ar  
    18    10    38 1   
    19    11    39 1   
    20    12    40 1   
    21    13    19 1   
    22    13    30 1   
    23    13    41 1   
    24    13    42 1   
    25    14    15 ar  
    26    14    19 ar  
    27    14    62 1   
    28    15    16 ar  
    29    15    43 1   
    30    16    17 ar  
    31    16    44 1   
    32    17    18 ar  
    33    17    45 1   
    34    18    19 ar  
    35    18    46 1   
    36    20    21 ar  
    37    20    25 ar  
    38    21    22 ar  
    39    21    47 1   
    40    22    23 ar  
    41    22    26 ar  
    42    23    24 ar  
    43    23    29 ar  
    44    24    25 ar  
    45    24    48 1   
    46    25    49 1   
    47    26    27 ar  
    48    26    50 1   
    49    27    28 ar  
    50    27    51 1   
    51    28    29 ar  
    52    28    52 1   
    53    29    53 1   
    54    30    31 1   
    55    30    35 1   
    56    30    54 1   
    57    31    32 1   
    58    31    55 1   
    59    31    56 1   
    60    32    33 1   
    61    33    34 1   
    62    33    57 1   
    63    33    58 1   
    64    34    35 1   
    65    34    59 1   
    66    34    60 1   
    67    35    61 1   
@<TRIPOS>SUBSTRUCTURE
     1 6NP         1 TEMP              0 ****  ****    0 ROOT
