@<TRIPOS>MOLECULE
6NQ
   43    45     1     0     0
SMALL
No Charge or Current Charge


@<TRIPOS>ATOM
      1 C4           2.6780    -1.3500     0.7080 ca         1 6NQ       0.091500
      2 C5           1.9910    -2.3800     0.1200 ca         1 6NQ      -0.045600
      3 C6           2.0280    -3.6460     0.7390 ca         1 6NQ       0.431900
      4 C8           1.6330    -0.6770    -1.1400 cc         1 6NQ       0.392700
      5 N1           2.7300    -3.8470     1.8660 nb         1 6NQ      -0.397000
      6 N3           3.3940    -1.5180     1.8370 nb         1 6NQ      -0.314000
      7 PG          -2.3190    -3.6540    -0.4610 p5         1 6NQ       1.315800
      8 O1G         -2.6950    -4.3580     0.7910 o          1 6NQ      -0.915833
      9 O2G         -1.0420    -4.1700    -0.9940 o          1 6NQ      -0.915833
     10 O3G         -3.4080    -3.7100    -1.4670 o          1 6NQ      -0.915833
     11 PB          -2.4030    -0.9120    -0.8180 p5         1 6NQ       1.463700
     12 O1B         -3.8880    -0.7940    -0.7110 o          1 6NQ      -0.890000
     13 O2B         -1.8360    -0.9780    -2.1910 o          1 6NQ      -0.890000
     14 N3B         -1.8990    -2.2010    -0.0350 n7         1 6NQ      -0.992600
     15 PA          -2.1740     1.5520     0.0530 p5         1 6NQ       1.460800
     16 O1A         -2.5400     2.0630    -1.3030 o          1 6NQ      -0.873500
     17 O2A         -3.2660     1.7590     1.0530 o          1 6NQ      -0.873500
     18 O3A         -1.5920     0.0830     0.0940 os         1 6NQ      -0.704800
     19 C9           0.1900     2.6110    -0.3590 c3         1 6NQ       0.227600
     20 C7           1.4940     2.9530     0.4240 c5         1 6NQ       0.158300
     21 O4           2.0350     1.7760     1.0750 os         1 6NQ      -0.396000
     22 C3           2.6730     3.4320    -0.4820 c5         1 6NQ       0.120300
     23 O3           3.7130     4.0990     0.2520 oh         1 6NQ      -0.710000
     24 C2           3.1370     2.0610    -1.0540 c5         1 6NQ       0.025300
     25 Br           5.0330     2.0800    -1.7550 br         1 6NQ      -0.318000
     26 C1           2.9380     1.1010     0.1680 c5         1 6NQ       0.337300
     27 N9           2.4480    -0.2570    -0.0790 na         1 6NQ      -0.316300
     28 N7           1.3380    -1.9830    -1.0460 nd         1 6NQ      -0.449100
     29 N6           1.3520    -4.7260     0.2780 nv         1 6NQ      -1.021900
     30 C10          3.3850    -2.7680     2.3580 ca         1 6NQ       0.148900
     31 H1           1.2910    -0.0150    -1.9270 h5         1 6NQ       0.117800
     32 H5          -1.0820    -2.3090    -0.6150 hn         1 6NQ       0.420000
     33 H7           0.3610     1.7690    -1.0380 h1         1 6NQ      -0.003300
     34 H8          -0.0900     3.4820    -0.9650 h1         1 6NQ      -0.003300
     35 H9           1.2490     3.7060     1.1840 h1         1 6NQ       0.066700
     36 H10          2.3080     4.0880    -1.2850 h1         1 6NQ       0.038700
     37 H11          4.5180     4.0770    -0.3160 ho         1 6NQ       0.478000
     38 H12          2.5370     1.7700    -1.9250 h1         1 6NQ       0.127700
     39 H13          3.9010     0.9750     0.6790 h2         1 6NQ       0.085700
     40 H14          0.5050    -4.5000    -0.2760 hn         1 6NQ       0.513500
     41 H15          1.2140    -5.4850     0.9330 hn         1 6NQ       0.513500
     42 H16          3.9580    -2.9210     3.2700 h5         1 6NQ      -0.027900
     43 O5          -0.8530     2.3150     0.5740 os         1 6NQ      -0.561400
@<TRIPOS>BOND
     1     1     2 ar  
     2     1     6 ar  
     3     1    27 1   
     4     2     3 ar  
     5     2    28 1   
     6     3     5 ar  
     7     3    29 1   
     8     4    27 1   
     9     4    28 2   
    10     4    31 1   
    11     5    30 ar  
    12     6    30 ar  
    13     7     8 1   
    14     7     9 1   
    15     7    10 1   
    16     7    14 1   
    17    11    12 1   
    18    11    13 1   
    19    11    14 1   
    20    11    18 1   
    21    14    32 1   
    22    15    16 1   
    23    15    17 1   
    24    15    18 1   
    25    15    43 1   
    26    19    20 1   
    27    19    33 1   
    28    19    34 1   
    29    19    43 1   
    30    20    21 1   
    31    20    22 1   
    32    20    35 1   
    33    21    26 1   
    34    22    23 1   
    35    22    24 1   
    36    22    36 1   
    37    23    37 1   
    38    24    25 1   
    39    24    26 1   
    40    24    38 1   
    41    26    27 1   
    42    26    39 1   
    43    29    40 1   
    44    29    41 1   
    45    30    42 1   
@<TRIPOS>SUBSTRUCTURE
     1 6NQ         1 TEMP              0 ****  ****    0 ROOT
