@<TRIPOS>MOLECULE
6NQ
   43    45     1     0     0
SMALL
bcc


@<TRIPOS>ATOM
      1 C4           2.7380    -1.4240     0.5540 ca         1 6NQ       0.419800
      2 C5           1.9390    -2.4060    -0.0050 ca         1 6NQ      -0.176200
      3 C6           2.1000    -3.7190     0.4930 ca         1 6NQ       0.760200
      4 C8           1.3370    -0.5830    -0.9090 cc         1 6NQ       0.392700
      5 N1           3.0900    -3.9070     1.3900 nb         1 6NQ      -0.923000
      6 N3           3.6910    -1.5960     1.4680 nb         1 6NQ      -0.840000
      7 PG          -2.2390    -3.9180     0.0240 p5         1 6NQ       1.315800
      8 O1G         -2.2070    -4.3040     1.4970 o          1 6NQ      -0.915833
      9 O2G         -1.0900    -4.5710    -0.7960 o          1 6NQ      -0.915833
     10 O3G         -3.5990    -4.0840    -0.6440 o          1 6NQ      -0.915833
     11 PB          -2.9850    -1.0300    -0.3800 p5         1 6NQ       1.463700
     12 O1B         -4.0380    -1.0460     0.6930 o          1 6NQ      -0.890000
     13 O2B         -3.4200    -0.9180    -1.8180 o          1 6NQ      -0.890000
     14 N3B         -1.8420    -2.2140    -0.0790 n7         1 6NQ      -0.937400
     15 PA          -1.8550     1.5750    -1.0780 p5         1 6NQ       1.460800
     16 O1A         -1.0830     1.2190    -2.3180 o          1 6NQ      -0.873500
     17 O2A         -3.1510     2.3200    -1.1860 o          1 6NQ      -0.873500
     18 O3A         -2.0020     0.3080    -0.0750 os         1 6NQ      -0.704800
     19 C9           0.2890     3.0860    -0.5900 c3         1 6NQ       0.204400
     20 C7           1.4130     3.0210     0.4340 c5         1 6NQ       0.135100
     21 O4           1.5770     1.7020     0.9500 os         1 6NQ      -0.349600
     22 C3           2.7550     3.3790    -0.2060 c5         1 6NQ       0.097100
     23 O3           3.6140     3.8460     0.7930 oh         1 6NQ      -0.587800
     24 C2           3.1470     1.9980    -0.7360 c5         1 6NQ      -0.057300
     25 BR           5.0240     1.7930    -1.1620 br         1 6NQ      -0.235400
     26 C1           2.7000     1.0710     0.3950 c5         1 6NQ       0.284800
     27 N9           2.3410    -0.2520    -0.0360 na         1 6NQ      -0.287000
     28 N7           1.0830    -1.8560    -0.9280 nd         1 6NQ      -0.449100
     29 N6           1.3370    -4.7390     0.1250 nv         1 6NQ      -0.911500
     30 C10          3.8060    -2.8710     1.8060 ca         1 6NQ       0.674900
     31 H1           0.7960     0.1480    -1.4950 h5         1 6NQ       0.117800
     32 H5          -0.9490    -2.0610    -0.5370 hn         1 6NQ       0.364800
     33 H7           0.6030     2.6290    -1.5320 h1         1 6NQ      -0.003300
     34 H8           0.1010     4.1460    -0.8040 h1         1 6NQ      -0.003300
     35 H9           1.1940     3.6840     1.2750 h1         1 6NQ       0.066700
     36 H10          2.6380     4.0990    -1.0240 h1         1 6NQ       0.038700
     37 H11          4.4200     4.1810     0.3860 ho         1 6NQ       0.379000
     38 H12          2.6050     1.7830    -1.6590 h1         1 6NQ       0.127700
     39 H13          3.4860     0.9490     1.1460 h2         1 6NQ       0.085700
     40 H14          0.3480    -4.6100    -0.2820 hn         1 6NQ       0.458300
     41 H15          1.5080    -5.6000     0.6220 hn         1 6NQ       0.458300
     42 H16          4.5830    -3.1010     2.5290 h5         1 6NQ      -0.027900
     43 O5          -0.8620     2.4630    -0.0850 os         1 6NQ      -0.538200
@<TRIPOS>BOND
     1     1     2 ar  
     2     1     6 ar  
     3     1    27 1   
     4     2     3 ar  
     5     2    28 1   
     6     3     5 ar  
     7     3    29 1   
     8     4    27 1   
     9     4    28 2   
    10     4    31 1   
    11     5    30 ar  
    12     6    30 ar  
    13     7     8 1   
    14     7     9 1   
    15     7    10 1   
    16     7    14 1   
    17    11    12 1   
    18    11    13 1   
    19    11    14 1   
    20    11    18 1   
    21    14    32 1   
    22    15    16 1   
    23    15    17 1   
    24    15    18 1   
    25    15    43 1   
    26    19    20 1   
    27    19    33 1   
    28    19    34 1   
    29    19    43 1   
    30    20    21 1   
    31    20    22 1   
    32    20    35 1   
    33    21    26 1   
    34    22    23 1   
    35    22    24 1   
    36    22    36 1   
    37    23    37 1   
    38    24    25 1   
    39    24    26 1   
    40    24    38 1   
    41    26    27 1   
    42    26    39 1   
    43    29    40 1   
    44    29    41 1   
    45    30    42 1   
@<TRIPOS>SUBSTRUCTURE
     1 6NQ         1 TEMP              0 ****  ****    0 ROOT
