@<TRIPOS>MOLECULE
6NR
   47    49     1     0     0
SMALL
No Charge or Current Charge


@<TRIPOS>ATOM
      1 C4          18.3130    61.8300   -10.3370 ca         1 6NR       0.171500
      2 C5          17.1530    62.5690   -10.3090 ca         1 6NR      -0.227800
      3 C6          16.4260    62.7590   -11.4920 ca         1 6NR       0.427900
      4 N1          16.8480    62.2270   -12.6470 nb         1 6NR      -0.298000
      5 C7          16.9250    63.0070    -8.9580 cc         1 6NR      -0.053900
      6 C8          17.9770    62.4970    -8.2140 cd         1 6NR      -0.087100
      7 N3          18.7510    61.2830   -11.4900 nb         1 6NR      -0.208000
      8 C           25.6070    65.4710    -4.0130 c          1 6NR       0.684000
      9 OXT         24.8170    66.1350    -3.3530 o          1 6NR      -0.728500
     10 CA          25.1370    64.0560    -4.5490 c3         1 6NR       0.012500
     11 N           24.2380    63.2530    -3.6390 n8         1 6NR      -1.011200
     12 CB          24.5250    64.1690    -5.9700 c3         1 6NR      -0.035400
     13 CG          23.2230    64.9980    -6.0500 c3         1 6NR       0.100600
     14 C10         21.1480    63.8030    -7.6320 c3         1 6NR       0.050600
     15 C9          21.5960    62.3390    -7.3430 c5         1 6NR       0.132300
     16 C3          22.4700    61.6760    -8.4530 c5         1 6NR       0.113300
     17 O3          23.1140    60.4590    -8.0110 oh         1 6NR      -0.704000
     18 C2          21.3800    61.3530    -9.5220 c5         1 6NR       0.133300
     19 O2          21.8210    60.2250   -10.2860 oh         1 6NR      -0.684000
     20 O4          20.4460    61.4650    -7.2900 os         1 6NR      -0.459000
     21 C1          20.0920    61.0800    -8.6460 c5         1 6NR       0.306300
     22 N9          18.8620    61.7770    -9.0590 na         1 6NR      -0.182400
     23 C11         17.9950    61.5110   -12.5890 ca         1 6NR       0.173900
     24 CN          15.8500    63.7830    -8.4370 cg         1 6NR       0.330700
     25 NN          14.9500    64.4120    -8.0400 n1         1 6NR      -0.493000
     26 N6          15.2720    63.4700   -11.5650 nv         1 6NR      -1.074900
     27 H1          18.1580    62.5940    -7.1470 h4         1 6NR       0.232000
     28 H3          26.0540    63.4610    -4.6610 h1         1 6NR       0.040700
     29 H7          24.3370    63.1610    -6.3570 hc         1 6NR       0.029200
     30 H8          25.2690    64.6190    -6.6380 hc         1 6NR       0.029200
     31 H9          23.4300    66.0340    -5.7490 h1         1 6NR       0.085700
     32 H10         22.4670    64.5920    -5.3640 h1         1 6NR       0.085700
     33 H11         20.5730    63.8440    -8.5650 h1         1 6NR       0.069200
     34 H12         20.4870    64.1370    -6.8220 h1         1 6NR       0.069200
     35 H13         22.0990    62.3200    -6.3670 h1         1 6NR       0.107700
     36 H14         23.2160    62.3810    -8.8490 h1         1 6NR       0.075700
     37 H15         23.7290    60.6940    -7.2750 ho         1 6NR       0.519000
     38 H16         21.2190    62.2190   -10.1790 h1         1 6NR       0.041700
     39 H17         22.4940    59.8190    -9.6800 ho         1 6NR       0.509000
     40 H18         19.8450    60.0120    -8.6670 h2         1 6NR       0.129700
     41 H19         18.3460    61.0730   -13.5220 h5         1 6NR       0.046100
     42 H20         14.7080    63.3800   -12.4070 hn         1 6NR       0.499000
     43 H21         14.7780    63.7000   -10.7070 hn         1 6NR       0.499000
     44 H4          24.7470    63.0420    -2.7720 hn         1 6NR       0.388000
     45 O           26.7770    65.7900    -4.1710 o          1 6NR      -0.728500
     46 SD          22.5570    65.0060    -7.7840 ss         1 6NR      -0.504000
     47 H5          23.4840    63.8690    -3.3100 hn         1 6NR       0.388000
@<TRIPOS>BOND
     1     1     2 ar  
     2     1     7 ar  
     3     1    22 1   
     4     2     3 ar  
     5     2     5 1   
     6     3     4 ar  
     7     3    26 1   
     8     4    23 ar  
     9     5     6 2   
    10     5    24 1   
    11     6    22 1   
    12     6    27 1   
    13     7    23 ar  
    14     8     9 1   
    15     8    10 1   
    16     8    45 1   
    17    10    11 1   
    18    10    12 1   
    19    10    28 1   
    20    11    44 1   
    21    11    47 1   
    22    12    13 1   
    23    12    29 1   
    24    12    30 1   
    25    13    31 1   
    26    13    32 1   
    27    13    46 1   
    28    14    15 1   
    29    14    33 1   
    30    14    34 1   
    31    14    46 1   
    32    15    16 1   
    33    15    20 1   
    34    15    35 1   
    35    16    17 1   
    36    16    18 1   
    37    16    36 1   
    38    17    37 1   
    39    18    19 1   
    40    18    21 1   
    41    18    38 1   
    42    19    39 1   
    43    20    21 1   
    44    21    22 1   
    45    21    40 1   
    46    23    41 1   
    47    24    25 3   
    48    26    42 1   
    49    26    43 1   
@<TRIPOS>SUBSTRUCTURE
     1 6NR         1 TEMP              0 ****  ****    0 ROOT
