@<TRIPOS>MOLECULE
6NR
   47    49     1     0     0
SMALL
abcg2


@<TRIPOS>ATOM
      1 C4          18.0950    61.4860   -10.1400 ca         1 6NR       0.171500
      2 C5          16.8900    62.1290   -10.4470 ca         1 6NR      -0.227800
      3 C6          15.8890    61.3230   -11.0300 ca         1 6NR       0.427900
      4 N1          16.1470    60.0190   -11.2350 nb         1 6NR      -0.298000
      5 C7          17.0510    63.5080   -10.0580 cc         1 6NR      -0.053900
      6 C8          18.3260    63.6330    -9.5470 cd         1 6NR      -0.087100
      7 N3          18.3630    60.1930   -10.3420 nb         1 6NR      -0.208000
      8 C           25.7020    64.0490    -3.1550 c          1 6NR       0.684000
      9 OXT         25.0340    64.3770    -2.1430 o          1 6NR      -0.728500
     10 CA          25.0730    63.0140    -4.1300 c3         1 6NR       0.012500
     11 N           23.9390    62.2650    -3.5670 n8         1 6NR      -1.011200
     12 CB          24.6630    63.7090    -5.4400 c3         1 6NR      -0.035400
     13 CG          23.5770    64.7620    -5.2470 c3         1 6NR       0.100600
     14 C10         21.5370    64.6390    -7.2290 c3         1 6NR       0.050600
     15 C9          21.7740    63.1900    -7.6400 c5         1 6NR       0.132300
     16 C3          22.5270    62.9960    -8.9600 c5         1 6NR       0.113300
     17 O3          23.2230    61.7570    -8.9980 oh         1 6NR      -0.704000
     18 C2          21.3720    62.9310    -9.9630 c5         1 6NR       0.133300
     19 O2          21.6250    62.2790   -11.1850 oh         1 6NR      -0.684000
     20 O4          20.4820    62.5460    -7.8270 os         1 6NR      -0.459000
     21 C1          20.3170    62.1550    -9.1760 c5         1 6NR       0.306300
     22 N9          18.9560    62.4200    -9.5980 na         1 6NR      -0.182400
     23 C11         17.3430    59.5360   -10.8860 ca         1 6NR       0.173900
     24 CN          16.1050    64.5460   -10.1560 cg         1 6NR       0.330700
     25 NN          15.3080    65.3770   -10.2510 n1         1 6NR      -0.493000
     26 N6          14.6910    61.7980   -11.4140 nv         1 6NR      -1.074900
     27 H1          18.8150    64.5030    -9.1440 h4         1 6NR       0.232000
     28 H3          25.8570    62.2980    -4.3840 h1         1 6NR       0.040700
     29 H7          24.3150    62.9440    -6.1350 hc         1 6NR       0.029200
     30 H8          25.5430    64.1770    -5.8850 hc         1 6NR       0.029200
     31 H9          23.9370    65.5680    -4.6070 h1         1 6NR       0.085700
     32 H10         22.6880    64.3440    -4.7760 h1         1 6NR       0.085700
     33 H11         21.0790    65.2010    -8.0440 h1         1 6NR       0.069200
     34 H12         20.8520    64.6610    -6.3810 h1         1 6NR       0.069200
     35 H13         22.2800    62.6510    -6.8390 h1         1 6NR       0.107700
     36 H14         23.2020    63.8290    -9.1640 h1         1 6NR       0.075700
     37 H15         23.9900    61.8240    -8.4150 ho         1 6NR       0.519000
     38 H16         21.0120    63.9490   -10.1340 h1         1 6NR       0.041700
     39 H17         22.1360    62.8700   -11.7530 ho         1 6NR       0.509000
     40 H18         20.4670    61.0820    -9.3020 h2         1 6NR       0.129700
     41 H19         17.4970    58.4780   -11.0710 h5         1 6NR       0.046100
     42 H20         13.9900    61.1450   -11.7270 hn         1 6NR       0.499000
     43 H21         14.3950    62.7300   -11.1780 hn         1 6NR       0.499000
     44 H4          24.2990    61.5080    -2.9950 hn         1 6NR       0.388000
     45 O           26.8320    64.4990    -3.4790 o          1 6NR      -0.728500
     46 SD          23.0410    65.5700    -6.7990 ss         1 6NR      -0.504000
     47 H5          23.4710    62.8830    -2.9080 hn         1 6NR       0.388000
@<TRIPOS>BOND
     1     1     2 ar  
     2     1     7 ar  
     3     1    22 1   
     4     2     3 ar  
     5     2     5 1   
     6     3     4 ar  
     7     3    26 1   
     8     4    23 ar  
     9     5     6 2   
    10     5    24 1   
    11     6    22 1   
    12     6    27 1   
    13     7    23 ar  
    14     8     9 1   
    15     8    10 1   
    16     8    45 1   
    17    10    11 1   
    18    10    12 1   
    19    10    28 1   
    20    11    44 1   
    21    11    47 1   
    22    12    13 1   
    23    12    29 1   
    24    12    30 1   
    25    13    31 1   
    26    13    32 1   
    27    13    46 1   
    28    14    15 1   
    29    14    33 1   
    30    14    34 1   
    31    14    46 1   
    32    15    16 1   
    33    15    20 1   
    34    15    35 1   
    35    16    17 1   
    36    16    18 1   
    37    16    36 1   
    38    17    37 1   
    39    18    19 1   
    40    18    21 1   
    41    18    38 1   
    42    19    39 1   
    43    20    21 1   
    44    21    22 1   
    45    21    40 1   
    46    23    41 1   
    47    24    25 3   
    48    26    42 1   
    49    26    43 1   
@<TRIPOS>SUBSTRUCTURE
     1 6NR         1 TEMP              0 ****  ****    0 ROOT
