@<TRIPOS>MOLECULE
6NS
   45    47     1     0     0
SMALL
No Charge or Current Charge


@<TRIPOS>ATOM
      1 F2          -1.8990    -3.3290    -1.0110 f          1 6NS      -0.180000
      2 C9          -0.9490    -2.4130    -0.7000 ca         1 6NS      -0.035000
      3 C10          0.4030    -2.7780    -0.6350 ca         1 6NS       0.100900
      4 N2           1.3580    -1.8770    -0.3310 nb         1 6NS      -0.239000
      5 C11          0.9650    -0.6050    -0.0880 ca         1 6NS       0.262800
      6 N3          -0.3160    -0.1710    -0.1280 nb         1 6NS      -0.261000
      7 C8          -1.2710    -1.0680    -0.4340 ca         1 6NS       0.411900
      8 N1          -2.5940    -0.6210    -0.4830 nu         1 6NS      -0.884100
      9 C5          -3.1130     0.7380    -0.2480 c3         1 6NS       0.254500
     10 C6          -4.3490     0.6180     0.6820 c3         1 6NS      -0.234400
     11 C7          -3.9120     0.1890     2.0860 c          1 6NS       0.711000
     12 O2          -3.9790    -0.9930     2.3860 o          1 6NS      -0.728000
     13 O1          -3.5280     1.0600     2.8540 o          1 6NS      -0.728000
     14 C2          -3.3630     1.4980    -1.6170 c3         1 6NS      -0.061000
     15 C4          -2.0550     1.5430    -2.4620 c3         1 6NS      -0.077433
     16 C3          -4.4760     0.8120    -2.4620 c3         1 6NS      -0.077433
     17 C1          -3.7810     2.9750    -1.3570 c3         1 6NS      -0.077433
     18 C12          2.0040     0.3860     0.2370 cc         1 6NS      -0.199000
     19 C15          3.4340     0.2570     0.3660 ca         1 6NS      -0.069800
     20 C16          4.2820    -0.8570     0.2290 ca         1 6NS      -0.050000
     21 C17          5.6530    -0.6250     0.4260 ca         1 6NS       0.069000
     22 F1           6.5380    -1.6430     0.3130 f          1 6NS      -0.187000
     23 C18          6.0940     0.6820     0.7440 ca         1 6NS       0.308900
     24 N5           5.2520     1.7430     0.8710 nb         1 6NS      -0.670000
     25 C14          3.9380     1.5060     0.6790 ca         1 6NS       0.334500
     26 N4           2.8980     2.4130     0.7530 na         1 6NS      -0.325400
     27 C13          1.6940     1.7190     0.4780 cd         1 6NS      -0.081100
     28 H1           0.7290    -3.7990    -0.8290 h4         1 6NS       0.017100
     29 H2          -3.2820    -1.3530    -0.6490 hn         1 6NS       0.503000
     30 H3          -2.3680     1.3270     0.3100 h1         1 6NS       0.096700
     31 H4          -4.7770     1.6210     0.7550 hc         1 6NS       0.030700
     32 H5          -5.0340    -0.1180     0.2430 hc         1 6NS       0.030700
     33 H7          -1.7400     0.5410    -2.7750 hc         1 6NS       0.027256
     34 H8          -2.1960     2.1360    -3.3750 hc         1 6NS       0.027256
     35 H9          -1.2360     1.9980    -1.8920 hc         1 6NS       0.027256
     36 H10         -5.4380     0.8150    -1.9360 hc         1 6NS       0.027256
     37 H11         -4.6200     1.3370    -3.4140 hc         1 6NS       0.027256
     38 H12         -4.2170    -0.2290    -2.6930 hc         1 6NS       0.027256
     39 H13         -3.0700     3.4710    -0.6830 hc         1 6NS       0.027256
     40 H14         -3.8080     3.5460    -2.2930 hc         1 6NS       0.027256
     41 H15         -4.7810     3.0470    -0.9140 hc         1 6NS       0.027256
     42 H16          3.9170    -1.8500    -0.0150 ha         1 6NS       0.161000
     43 H17          7.1530     0.8840     0.9020 h4         1 6NS       0.024100
     44 H18          2.9960     3.3980     0.9680 hn         1 6NS       0.358000
     45 H19          0.7270     2.2210     0.4750 h4         1 6NS       0.243000
@<TRIPOS>BOND
     1     1     2 1   
     2     2     3 ar  
     3     2     7 ar  
     4     3     4 ar  
     5     3    28 1   
     6     4     5 ar  
     7     5     6 ar  
     8     5    18 1   
     9     6     7 ar  
    10     7     8 1   
    11     8     9 1   
    12     8    29 1   
    13     9    10 1   
    14     9    14 1   
    15     9    30 1   
    16    10    11 1   
    17    10    31 1   
    18    10    32 1   
    19    11    12 1   
    20    11    13 1   
    21    14    15 1   
    22    14    16 1   
    23    14    17 1   
    24    15    33 1   
    25    15    34 1   
    26    15    35 1   
    27    16    36 1   
    28    16    37 1   
    29    16    38 1   
    30    17    39 1   
    31    17    40 1   
    32    17    41 1   
    33    18    19 1   
    34    18    27 2   
    35    19    20 ar  
    36    19    25 ar  
    37    20    21 ar  
    38    20    42 1   
    39    21    22 1   
    40    21    23 ar  
    41    23    24 ar  
    42    23    43 1   
    43    24    25 ar  
    44    25    26 1   
    45    26    27 1   
    46    26    44 1   
    47    27    45 1   
@<TRIPOS>SUBSTRUCTURE
     1 6NS         1 TEMP              0 ****  ****    0 ROOT
