@<TRIPOS>MOLECULE
6NS
   45    47     1     0     0
SMALL
bcc


@<TRIPOS>ATOM
      1 F2          -1.9250    -3.2800    -0.8340 f          1 6NS      -0.144900
      2 C9          -0.9590    -2.3800    -0.5750 ca         1 6NS      -0.200700
      3 C10          0.3410    -2.7530    -0.4380 ca         1 6NS       0.429200
      4 N2           1.3100    -1.8640    -0.1850 nb         1 6NS      -0.765000
      5 C11          0.9200    -0.6020    -0.0720 ca         1 6NS       0.788800
      6 N3          -0.3270    -0.1520    -0.1860 nb         1 6NS      -0.787000
      7 C8          -1.3020    -1.0150    -0.4410 ca         1 6NS       0.740200
      8 N1          -2.5640    -0.6000    -0.5880 nu         1 6NS      -0.828900
      9 C5          -3.0450     0.7450    -0.3080 c3         1 6NS       0.254500
     10 C6          -4.2260     0.6300     0.6500 c3         1 6NS      -0.234400
     11 C7          -3.8610    -0.0960     1.9600 c          1 6NS       0.921600
     12 O2          -4.6680    -0.9530     2.3750 o          1 6NS      -0.833300
     13 O1          -2.8000     0.2540     2.5140 o          1 6NS      -0.833300
     14 C2          -3.3370     1.5290    -1.6140 c3         1 6NS      -0.061000
     15 C4          -2.0410     1.6720    -2.4150 c3         1 6NS      -0.077433
     16 C3          -4.3790     0.8190    -2.4790 c3         1 6NS      -0.077433
     17 C1          -3.8410     2.9310    -1.2590 c3         1 6NS      -0.077433
     18 C12          1.9460     0.3970     0.1890 cc         1 6NS      -0.199000
     19 C15          3.3560     0.2050     0.3410 ca         1 6NS      -0.135100
     20 C16          4.2360    -0.8750     0.3140 ca         1 6NS      -0.068000
     21 C17          5.5640    -0.5770     0.5120 ca         1 6NS      -0.031400
     22 F1           6.4760    -1.5650     0.4980 f          1 6NS      -0.151900
     23 C18          6.0150     0.7250     0.7270 ca         1 6NS       0.374200
     24 N5           5.1920     1.7610     0.7560 nb         1 6NS      -0.670000
     25 C14          3.9160     1.4840     0.5670 ca         1 6NS       0.399800
     26 N4           2.8950     2.3920     0.5510 na         1 6NS      -0.275100
     27 C13          1.7260     1.7470     0.3250 cd         1 6NS      -0.031100
     28 H1           0.6260    -3.7960    -0.5340 h4         1 6NS       0.017100
     29 H2          -3.2650    -1.3090    -0.7380 hn         1 6NS       0.447800
     30 H3          -2.2390     1.2600     0.2160 h1         1 6NS       0.096700
     31 H4          -4.5710     1.6360     0.9100 hc         1 6NS       0.030700
     32 H5          -5.0690     0.1310     0.1650 hc         1 6NS       0.030700
     33 H7          -1.6440     0.7040    -2.7230 hc         1 6NS       0.027256
     34 H8          -2.2200     2.2550    -3.3220 hc         1 6NS       0.027256
     35 H9          -1.2690     2.1790    -1.8350 hc         1 6NS       0.027256
     36 H10         -5.3290     0.6900    -1.9580 hc         1 6NS       0.027256
     37 H11         -4.5810     1.3940    -3.3840 hc         1 6NS       0.027256
     38 H12         -4.0330    -0.1680    -2.7950 hc         1 6NS       0.027256
     39 H13         -3.1730     3.4270    -0.5500 hc         1 6NS       0.027256
     40 H14         -3.8880     3.5540    -2.1550 hc         1 6NS       0.027256
     41 H15         -4.8400     2.9120    -0.8220 hc         1 6NS       0.027256
     42 H16          3.8970    -1.8880     0.1460 ha         1 6NS       0.179000
     43 H17          7.0710     0.9160     0.8780 h4         1 6NS       0.024100
     44 H18          2.9970     3.3870     0.6770 hn         1 6NS       0.307700
     45 H19          0.7950     2.2880     0.2720 h4         1 6NS       0.193000
@<TRIPOS>BOND
     1     1     2 1   
     2     2     3 ar  
     3     2     7 ar  
     4     3     4 ar  
     5     3    28 1   
     6     4     5 ar  
     7     5     6 ar  
     8     5    18 1   
     9     6     7 ar  
    10     7     8 1   
    11     8     9 1   
    12     8    29 1   
    13     9    10 1   
    14     9    14 1   
    15     9    30 1   
    16    10    11 1   
    17    10    31 1   
    18    10    32 1   
    19    11    12 1   
    20    11    13 1   
    21    14    15 1   
    22    14    16 1   
    23    14    17 1   
    24    15    33 1   
    25    15    34 1   
    26    15    35 1   
    27    16    36 1   
    28    16    37 1   
    29    16    38 1   
    30    17    39 1   
    31    17    40 1   
    32    17    41 1   
    33    18    19 1   
    34    18    27 2   
    35    19    20 ar  
    36    19    25 ar  
    37    20    21 ar  
    38    20    42 1   
    39    21    22 1   
    40    21    23 ar  
    41    23    24 ar  
    42    23    43 1   
    43    24    25 ar  
    44    25    26 1   
    45    26    27 1   
    46    26    44 1   
    47    27    45 1   
@<TRIPOS>SUBSTRUCTURE
     1 6NS         1 TEMP              0 ****  ****    0 ROOT
