@<TRIPOS>MOLECULE
6NT
   16    17     1     0     0
SMALL
No Charge or Current Charge


@<TRIPOS>ATOM
      1 O21          3.4410    -0.7290     0.0480 o          1 6NT      -0.392500
      2 NO1          2.6390     0.2150     0.0400 no         1 6NT       0.691200
      3 O11          2.9830     1.4050     0.0370 o          1 6NT      -0.392500
      4 C5           1.1730    -0.0990     0.0330 ca         1 6NT      -0.146200
      5 C6           0.7210    -1.4530     0.0360 ca         1 6NT      -0.090000
      6 C7          -0.6600    -1.7550     0.0300 ca         1 6NT      -0.032000
      7 C7A         -1.5740    -0.6930     0.0200 ca         1 6NT       0.044400
      8 N1          -2.9640    -0.7300     0.0130 nc         1 6NT      -0.218400
      9 C3A         -1.1370     0.5920     0.0170 ca         1 6NT      -0.103200
     10 C4           0.2170     0.9510     0.0230 ca         1 6NT      -0.034000
     11 N3          -2.2680     1.3520     0.0080 na         1 6NT      -0.056400
     12 N2          -3.3870     0.5370     0.0050 nd         1 6NT      -0.135400
     13 H6           1.4330    -2.2760     0.0440 ha         1 6NT       0.158000
     14 H4           0.5120     1.9990     0.0200 ha         1 6NT       0.162000
     15 H7          -1.0080    -2.7850     0.0330 ha         1 6NT       0.150000
     16 H3          -2.3450     2.3650     0.0030 hn         1 6NT       0.393000
@<TRIPOS>BOND
     1     1     2 1   
     2     2     3 1   
     3     2     4 1   
     4     4     5 ar  
     5     4    10 ar  
     6     5     6 ar  
     7     5    13 1   
     8     6     7 ar  
     9     6    15 1   
    10     7     8 1   
    11     7     9 ar  
    12     8    12 2   
    13     9    10 ar  
    14     9    11 1   
    15    10    14 1   
    16    11    12 1   
    17    11    16 1   
@<TRIPOS>SUBSTRUCTURE
     1 6NT         1 TEMP              0 ****  ****    0 ROOT
