@<TRIPOS>MOLECULE
6NT
   16    17     1     0     0
SMALL
abcg2


@<TRIPOS>ATOM
      1 O21          3.3140    -0.7380     0.0600 o          1 6NT      -0.392500
      2 NO1          2.5470     0.1950     0.0400 no         1 6NT       0.691200
      3 O11          2.8930     1.3520     0.0250 o          1 6NT      -0.392500
      4 C5           1.1180    -0.0940     0.0320 ca         1 6NT      -0.146200
      5 C6           0.7070    -1.4420     0.0350 ca         1 6NT      -0.090000
      6 C7          -0.6290    -1.7590     0.0290 ca         1 6NT      -0.032000
      7 C7A         -1.5430    -0.7010     0.0190 ca         1 6NT       0.044400
      8 N1          -2.9070    -0.6900     0.0130 nc         1 6NT      -0.218400
      9 C3A         -1.1000     0.6240     0.0170 ca         1 6NT      -0.103200
     10 C4           0.2460     0.9720     0.0230 ca         1 6NT      -0.034000
     11 N3          -2.2490     1.3340     0.0090 na         1 6NT      -0.056400
     12 N2          -3.2950     0.5280     0.0060 nd         1 6NT      -0.135400
     13 H6           1.4410    -2.2320     0.0430 ha         1 6NT       0.158000
     14 H4           0.5750     2.0010     0.0210 ha         1 6NT       0.162000
     15 H7          -0.9580    -2.7880     0.0310 ha         1 6NT       0.150000
     16 H3          -2.3850     2.3350     0.0070 hn         1 6NT       0.393000
@<TRIPOS>BOND
     1     1     2 1   
     2     2     3 1   
     3     2     4 1   
     4     4     5 ar  
     5     4    10 ar  
     6     5     6 ar  
     7     5    13 1   
     8     6     7 ar  
     9     6    15 1   
    10     7     8 1   
    11     7     9 ar  
    12     8    12 2   
    13     9    10 ar  
    14     9    11 1   
    15    10    14 1   
    16    11    12 1   
    17    11    16 1   
@<TRIPOS>SUBSTRUCTURE
     1 6NT         1 TEMP              0 ****  ****    0 ROOT
