@<TRIPOS>MOLECULE
6NU
   46    49     1     0     0
SMALL
abcg2


@<TRIPOS>ATOM
      1 F2         -52.8540    -4.6310     5.1680 f          1 6NU      -0.187000
      2 C10        -52.0330    -4.3330     4.1270 ca         1 6NU      -0.048000
      3 C11        -52.4370    -3.5080     3.1200 ca         1 6NU       0.107900
      4 N2         -51.6330    -3.2110     2.0840 nb         1 6NU      -0.248000
      5 C12        -50.4180    -3.7730     2.1050 ca         1 6NU       0.260800
      6 N3         -49.9460    -4.5850     3.0610 nb         1 6NU      -0.243000
      7 C9         -50.7360    -4.8880     4.0990 ca         1 6NU       0.405900
      8 N1         -50.3070    -5.6900     5.0860 nu         1 6NU      -0.888100
      9 C6         -49.0030    -6.3480     5.1430 c3         1 6NU       0.258500
     10 C7         -49.2110    -7.8550     5.2930 c3         1 6NU      -0.222400
     11 C8         -49.8470    -8.4830     4.0370 c          1 6NU       0.706000
     12 O2         -50.8840    -9.1760     4.2010 o          1 6NU      -0.731000
     13 O1         -49.2710    -8.2610     2.9400 o          1 6NU      -0.731000
     14 C2         -48.1040    -5.7240     6.2280 cy         1 6NU      -0.084000
     15 C5         -46.6070    -6.0750     5.9600 cy         1 6NU      -0.081900
     16 C4         -46.4160    -4.6970     5.2830 cy         1 6NU      -0.094400
     17 C3         -47.7640    -4.2400     5.8910 cy         1 6NU      -0.081900
     18 C1         -48.6090    -5.9780     7.6390 c3         1 6NU      -0.069100
     19 C13        -49.5170    -3.4780     0.9960 cc         1 6NU      -0.188000
     20 C16        -48.2290    -4.0580     0.7200 ca         1 6NU      -0.071800
     21 C17        -47.4130    -5.0300     1.3010 ca         1 6NU      -0.022000
     22 C18        -46.2190    -5.2800     0.6580 ca         1 6NU       0.073000
     23 F1         -45.3740    -6.2140     1.1710 f          1 6NU      -0.180000
     24 C19        -45.8300    -4.6170    -0.5050 ca         1 6NU       0.313900
     25 N5         -46.5990    -3.6890    -1.0790 nb         1 6NU      -0.683000
     26 C15        -47.7480    -3.4410    -0.4690 ca         1 6NU       0.337500
     27 N4         -48.7010    -2.5380    -0.8810 na         1 6NU      -0.338400
     28 C14        -49.7520    -2.5630    -0.0110 cd         1 6NU      -0.105100
     29 H1         -53.4300    -3.0710     3.1380 h4         1 6NU       0.017100
     30 H2         -50.9690    -5.9020     5.8160 hn         1 6NU       0.499000
     31 H3         -48.5370    -6.1730     4.1770 h1         1 6NU       0.102700
     32 H4         -49.8330    -8.0690     6.1620 hc         1 6NU       0.031700
     33 H5         -48.2390    -8.3300     5.4530 hc         1 6NU       0.031700
     34 H7         -46.4140    -6.9580     5.3500 hc         1 6NU       0.046700
     35 H8         -46.0450    -6.1630     6.8910 hc         1 6NU       0.046700
     36 H9         -46.4510    -4.7590     4.1950 hc         1 6NU       0.044700
     37 H10        -45.5320    -4.1290     5.5690 hc         1 6NU       0.044700
     38 H11        -47.6290    -3.6490     6.7980 hc         1 6NU       0.046700
     39 H12        -48.4560    -3.7170     5.2320 hc         1 6NU       0.046700
     40 H13        -47.9640    -5.4760     8.3630 hc         1 6NU       0.028367
     41 H14        -49.6240    -5.5930     7.7780 hc         1 6NU       0.028367
     42 H15        -48.6160    -7.0430     7.8790 hc         1 6NU       0.028367
     43 H16        -47.6940    -5.5620     2.1960 ha         1 6NU       0.187000
     44 H17        -44.8790    -4.8510    -0.9690 h4         1 6NU       0.024100
     45 H18        -48.6280    -1.9480    -1.6960 hn         1 6NU       0.354000
     46 H19        -50.6050    -1.9220    -0.1580 h4         1 6NU       0.227000
@<TRIPOS>BOND
     1     1     2 1   
     2     2     3 ar  
     3     2     7 ar  
     4     3     4 ar  
     5     3    29 1   
     6     4     5 ar  
     7     5     6 ar  
     8     5    19 1   
     9     6     7 ar  
    10     7     8 1   
    11     8     9 1   
    12     8    30 1   
    13     9    10 1   
    14     9    14 1   
    15     9    31 1   
    16    10    11 1   
    17    10    32 1   
    18    10    33 1   
    19    11    12 1   
    20    11    13 1   
    21    14    15 1   
    22    14    17 1   
    23    14    18 1   
    24    15    16 1   
    25    15    34 1   
    26    15    35 1   
    27    16    17 1   
    28    16    36 1   
    29    16    37 1   
    30    17    38 1   
    31    17    39 1   
    32    18    40 1   
    33    18    41 1   
    34    18    42 1   
    35    19    20 1   
    36    19    28 2   
    37    20    21 ar  
    38    20    26 ar  
    39    21    22 ar  
    40    21    43 1   
    41    22    23 1   
    42    22    24 ar  
    43    24    25 ar  
    44    24    44 1   
    45    25    26 ar  
    46    26    27 1   
    47    27    28 1   
    48    27    45 1   
    49    28    46 1   
@<TRIPOS>SUBSTRUCTURE
     1 6NU         1 TEMP              0 ****  ****    0 ROOT
