@<TRIPOS>MOLECULE
6NU
   46    49     1     0     0
SMALL
No Charge or Current Charge


@<TRIPOS>ATOM
      1 F2         -52.8350    -4.5900     5.2390 f          1 6NU      -0.187000
      2 C10        -52.0050    -4.3170     4.2020 ca         1 6NU      -0.048000
      3 C11        -52.3420    -3.3430     3.2520 ca         1 6NU       0.107900
      4 N2         -51.5210    -3.0570     2.2220 nb         1 6NU      -0.248000
      5 C12        -50.3600    -3.7520     2.1340 ca         1 6NU       0.260800
      6 N3         -49.9610    -4.7030     3.0050 nb         1 6NU      -0.243000
      7 C9         -50.7760    -4.9850     4.0390 ca         1 6NU       0.405900
      8 N1         -50.3600    -5.9580     4.9490 nu         1 6NU      -0.888100
      9 C6         -49.0080    -6.5110     5.1290 c3         1 6NU       0.258500
     10 C7         -49.1150    -8.0220     5.4430 c3         1 6NU      -0.222400
     11 C8         -49.4810    -8.7930     4.1710 c          1 6NU       0.706000
     12 O2         -50.6520    -9.0820     3.9760 o          1 6NU      -0.731000
     13 O1         -48.5760    -9.0930     3.4080 o          1 6NU      -0.731000
     14 C2         -48.1810    -5.6900     6.1860 cy         1 6NU      -0.084000
     15 C5         -46.6170    -5.9050     6.1510 cy         1 6NU      -0.081900
     16 C4         -46.5530    -4.7520     5.0990 cy         1 6NU      -0.094400
     17 C3         -47.8250    -4.1960     5.8110 cy         1 6NU      -0.081900
     18 C1         -48.8200    -5.8560     7.5890 c3         1 6NU      -0.069100
     19 C13        -49.4540    -3.4220     1.0220 cc         1 6NU      -0.188000
     20 C16        -48.2140    -4.0250     0.5990 ca         1 6NU      -0.071800
     21 C17        -47.5210    -5.1510     1.0760 ca         1 6NU      -0.022000
     22 C18        -46.3180    -5.4670     0.4220 ca         1 6NU       0.073000
     23 F1         -45.5860    -6.5330     0.8220 f          1 6NU      -0.180000
     24 C19        -45.8880    -4.6600    -0.6580 ca         1 6NU       0.313900
     25 N5         -46.5860    -3.5820    -1.1090 nb         1 6NU      -0.683000
     26 C15        -47.7370    -3.2890    -0.4690 ca         1 6NU       0.337500
     27 N4         -48.6170    -2.2600    -0.7450 na         1 6NU      -0.338400
     28 C14        -49.6860    -2.3410     0.1810 cd         1 6NU      -0.105100
     29 H1         -53.2730    -2.7820     3.3150 h4         1 6NU       0.017100
     30 H2         -51.0330    -6.1540     5.6880 hn         1 6NU       0.499000
     31 H3         -48.4570    -6.4450     4.1790 h1         1 6NU       0.102700
     32 H4         -49.8790    -8.1580     6.2190 hc         1 6NU       0.031700
     33 H5         -48.1120    -8.3260     5.7630 hc         1 6NU       0.031700
     34 H7         -46.2640    -6.8810     5.8030 hc         1 6NU       0.046700
     35 H8         -46.1040    -5.6760     7.0940 hc         1 6NU       0.046700
     36 H9         -46.7020    -5.0630     4.0600 hc         1 6NU       0.044700
     37 H10        -45.6640    -4.1140     5.1450 hc         1 6NU       0.044700
     38 H11        -47.6040    -3.5520     6.6700 hc         1 6NU       0.046700
     39 H12        -48.5360    -3.6650     5.1710 hc         1 6NU       0.046700
     40 H13        -48.2860    -5.2550     8.3350 hc         1 6NU       0.028367
     41 H14        -49.8660    -5.5290     7.6030 hc         1 6NU       0.028367
     42 H15        -48.7810    -6.8950     7.9350 hc         1 6NU       0.028367
     43 H16        -47.8810    -5.7600     1.8980 ha         1 6NU       0.187000
     44 H17        -44.9600    -4.8870    -1.1800 h4         1 6NU       0.024100
     45 H18        -48.5010    -1.5750    -1.4810 hn         1 6NU       0.354000
     46 H19        -50.5080    -1.6270     0.1780 h4         1 6NU       0.227000
@<TRIPOS>BOND
     1     1     2 1   
     2     2     3 ar  
     3     2     7 ar  
     4     3     4 ar  
     5     3    29 1   
     6     4     5 ar  
     7     5     6 ar  
     8     5    19 1   
     9     6     7 ar  
    10     7     8 1   
    11     8     9 1   
    12     8    30 1   
    13     9    10 1   
    14     9    14 1   
    15     9    31 1   
    16    10    11 1   
    17    10    32 1   
    18    10    33 1   
    19    11    12 1   
    20    11    13 1   
    21    14    15 1   
    22    14    17 1   
    23    14    18 1   
    24    15    16 1   
    25    15    34 1   
    26    15    35 1   
    27    16    17 1   
    28    16    36 1   
    29    16    37 1   
    30    17    38 1   
    31    17    39 1   
    32    18    40 1   
    33    18    41 1   
    34    18    42 1   
    35    19    20 1   
    36    19    28 2   
    37    20    21 ar  
    38    20    26 ar  
    39    21    22 ar  
    40    21    43 1   
    41    22    23 1   
    42    22    24 ar  
    43    24    25 ar  
    44    24    44 1   
    45    25    26 ar  
    46    26    27 1   
    47    27    28 1   
    48    27    45 1   
    49    28    46 1   
@<TRIPOS>SUBSTRUCTURE
     1 6NU         1 TEMP              0 ****  ****    0 ROOT
