@<TRIPOS>MOLECULE
6NV
   88    91     1     0     0
SMALL
abcg2


@<TRIPOS>ATOM
      1 N1           0.4440     1.2050     1.3580 ns         1 6NV      -0.487900
      2 C4           0.8520     4.1450     1.1070 ca         1 6NV      -0.121300
      3 C5           0.8600     4.8210    -0.1140 ca         1 6NV      -0.064000
      4 C6          -0.1560     5.6880    -0.4660 ca         1 6NV      -0.169000
      5 C7          -1.2270     5.9040     0.4050 ca         1 6NV       0.144100
      6 C10         -1.2520     5.2400     1.6270 ca         1 6NV      -0.169000
      7 C15          4.5550    -0.5610     0.0850 c3         1 6NV       0.066700
      8 C17          2.6890    -2.2440    -0.0030 ca         1 6NV      -0.092300
      9 C20          0.2140    -2.8770     1.1400 ca         1 6NV      -0.112000
     10 C21          0.2720    -2.2180    -0.0800 ca         1 6NV      -0.110500
     11 C22          1.5010    -1.9030    -0.6440 ca         1 6NV      -0.102500
     12 C26          7.4000    -1.5240     0.7350 c3         1 6NV      -0.083100
     13 C30         -4.6380    -3.3100    -0.4740 cc         1 6NV      -0.040300
     14 C31         -5.5250    -3.3620    -1.5050 cd         1 6NV      -0.098800
     15 C32         -6.1930    -4.4550    -2.1630 cf         1 6NV      -0.124200
     16 C33         -7.0440    -4.2130    -3.1710 c2         1 6NV      -0.226200
     17 C34         -7.3460    -2.8380    -3.6670 c6         1 6NV      -0.030000
     18 C35         -6.6300    -1.7380    -2.9730 c2         1 6NV      -0.104200
     19 C36         -5.7810    -1.9970    -1.9660 cd         1 6NV      -0.089000
     20 C37         -4.9740    -1.1170    -1.1540 cd         1 6NV      -0.091000
     21 C38         -4.2980    -1.8990    -0.2690 cc         1 6NV      -0.148600
     22 O40         -3.3490    -1.9570     1.8990 o          1 6NV      -0.609100
     23 N41         -2.6820    -0.3190     0.4920 ns         1 6NV      -0.500900
     24 C42         -1.8010     0.3400     1.4230 c3         1 6NV       0.034700
     25 C43         -2.5320     1.4010     2.2480 c3         1 6NV      -0.105100
     26 C44         -0.6580     0.9700     0.6310 c          1 6NV       0.599100
     27 O45         -0.7740     1.2510    -0.5500 o          1 6NV      -0.612100
     28 C2           1.6520     1.7870     0.8280 c3         1 6NV       0.030700
     29 C3           1.9360     3.1650     1.4440 c3         1 6NV      -0.030100
     30 C11         -0.2160     4.3730     1.9620 ca         1 6NV      -0.064000
     31 O8          -2.1740     6.7660    -0.0160 os         1 6NV      -0.341100
     32 C9          -3.2870     7.0050     0.8210 c3         1 6NV       0.148900
     33 C12          2.8020     0.8290     1.1250 c          1 6NV       0.587100
     34 O13          3.0180     0.4580     2.2670 o          1 6NV      -0.590100
     35 N14          3.5410     0.4760     0.0590 ns         1 6NV      -0.502900
     36 C16          4.0190    -1.8400    -0.5750 c3         1 6NV      -0.048100
     37 C18          2.6180    -2.9130     1.2160 ca         1 6NV      -0.102500
     38 C19          1.3930    -3.2290     1.7840 ca         1 6NV      -0.110500
     39 C23          5.8230    -0.0150    -0.5880 c3         1 6NV       0.170300
     40 O24          6.2700     1.1420     0.0820 oh         1 6NV      -0.653000
     41 C25          6.9760    -1.0160    -0.6400 c3         1 6NV      -0.052700
     42 C27          8.1510    -0.4060    -1.3980 c3         1 6NV       0.166600
     43 O28          9.0810    -1.4280    -1.6900 oh         1 6NV      -0.667000
     44 H1           0.4720     0.8930     2.3170 hn         1 6NV       0.334500
     45 H2           1.6800     4.6680    -0.8070 ha         1 6NV       0.108500
     46 H3          -0.1270     6.2070    -1.4160 ha         1 6NV       0.122000
     47 H4          -2.0620     5.3790     2.3300 ha         1 6NV       0.122000
     48 H5           4.7650    -0.7650     1.1360 h1         1 6NV       0.101700
     49 H6          -0.7450    -3.1120     1.5860 ha         1 6NV       0.126000
     50 H7          -0.6410    -1.9430    -0.5930 ha         1 6NV       0.117000
     51 H8           1.5350    -1.3840    -1.5950 ha         1 6NV       0.109500
     52 H9           8.2040    -2.2530     0.6450 hc         1 6NV       0.042033
     53 H10          7.7590    -0.7080     1.3640 hc         1 6NV       0.042033
     54 H11          6.5800    -2.0140     1.2620 hc         1 6NV       0.042033
     55 H12         -2.9740    -4.4560     0.2460 hc         1 6NV       0.048367
     56 H13         -4.3400    -4.4260     1.3390 hc         1 6NV       0.048367
     57 H14         -4.4070    -5.4070    -0.1230 hc         1 6NV       0.048367
     58 H16         -7.5500    -5.0320    -3.6670 ha         1 6NV       0.178000
     59 H17         -7.1390    -2.7720    -4.7430 hc         1 6NV       0.069700
     60 H18         -8.4270    -2.6490    -3.6080 hc         1 6NV       0.069700
     61 H19         -6.8130    -0.7240    -3.3090 ha         1 6NV       0.181000
     62 H20         -4.9570    -0.0390    -1.2290 ha         1 6NV       0.131000
     63 H21         -2.7270     0.0560    -0.4430 hn         1 6NV       0.339500
     64 H22         -1.3850    -0.4140     2.0950 h1         1 6NV       0.087700
     65 H23         -2.9420     2.1800     1.6050 hc         1 6NV       0.049367
     66 H24         -3.3510     0.9390     2.7990 hc         1 6NV       0.049367
     67 H25         -1.8660     1.8710     2.9720 hc         1 6NV       0.049367
     68 H26          1.5120     1.9040    -0.2470 h1         1 6NV       0.087700
     69 H27          2.8980     3.5200     1.0650 hc         1 6NV       0.061200
     70 H28          2.0420     3.0590     2.5260 hc         1 6NV       0.061200
     71 H29         -0.2530     3.8700     2.9210 ha         1 6NV       0.108500
     72 H30         -3.9220     7.7150     0.2970 h1         1 6NV       0.040700
     73 H31         -3.8610     6.0930     1.0090 h1         1 6NV       0.040700
     74 H32         -2.9930     7.4390     1.7800 h1         1 6NV       0.040700
     75 H33          3.2120     0.7650    -0.8510 hn         1 6NV       0.309500
     76 H34          3.9300    -1.6830    -1.6550 hc         1 6NV       0.055200
     77 H35          4.7440    -2.6450    -0.4330 hc         1 6NV       0.055200
     78 H36          3.5340    -3.1870     1.7290 ha         1 6NV       0.109500
     79 H37          1.3580    -3.7510     2.7330 ha         1 6NV       0.117000
     80 H38          5.5560     0.2280    -1.6300 h1         1 6NV       0.020700
     81 H39          5.5490     1.7800     0.0880 ho         1 6NV       0.448000
     82 H40          6.6250    -1.8640    -1.2390 hc         1 6NV       0.059700
     83 H41          7.7810     0.0630    -2.3210 h1         1 6NV       0.025700
     84 H42          8.6080     0.3860    -0.7940 h1         1 6NV       0.025700
     85 H43          9.8580    -1.0230    -2.0830 ho         1 6NV       0.444000
     86 C39         -3.4070    -1.4060     0.8060 c          1 6NV       0.624700
     87 H15         -6.0100    -5.4720    -1.8380 ha         1 6NV       0.184000
     88 C29         -4.0650    -4.4570     0.2850 c3         1 6NV      -0.033800
@<TRIPOS>BOND
     1     1    26 1   
     2     1    28 1   
     3     1    44 1   
     4     2     3 ar  
     5     2    29 1   
     6     2    30 ar  
     7     3     4 ar  
     8     3    45 1   
     9     4     5 ar  
    10     4    46 1   
    11     5     6 ar  
    12     5    31 1   
    13     6    30 ar  
    14     6    47 1   
    15     7    35 1   
    16     7    36 1   
    17     7    39 1   
    18     7    48 1   
    19     8    11 ar  
    20     8    36 1   
    21     8    37 ar  
    22     9    10 ar  
    23     9    38 ar  
    24     9    49 1   
    25    10    11 ar  
    26    10    50 1   
    27    11    51 1   
    28    12    41 1   
    29    12    52 1   
    30    12    53 1   
    31    12    54 1   
    32    13    14 2   
    33    13    21 1   
    34    13    88 1   
    35    14    15 1   
    36    14    19 1   
    37    15    16 2   
    38    15    87 1   
    39    16    17 1   
    40    16    58 1   
    41    17    18 1   
    42    17    59 1   
    43    17    60 1   
    44    18    19 2   
    45    18    61 1   
    46    19    20 1   
    47    20    21 2   
    48    20    62 1   
    49    21    86 1   
    50    22    86 2   
    51    23    24 1   
    52    23    63 1   
    53    23    86 1   
    54    24    25 1   
    55    24    26 1   
    56    24    64 1   
    57    25    65 1   
    58    25    66 1   
    59    25    67 1   
    60    26    27 2   
    61    28    29 1   
    62    28    33 1   
    63    28    68 1   
    64    29    69 1   
    65    29    70 1   
    66    30    71 1   
    67    31    32 1   
    68    32    72 1   
    69    32    73 1   
    70    32    74 1   
    71    33    34 2   
    72    33    35 1   
    73    35    75 1   
    74    36    76 1   
    75    36    77 1   
    76    37    38 ar  
    77    37    78 1   
    78    38    79 1   
    79    39    40 1   
    80    39    41 1   
    81    39    80 1   
    82    40    81 1   
    83    41    42 1   
    84    41    82 1   
    85    42    43 1   
    86    42    83 1   
    87    42    84 1   
    88    43    85 1   
    89    55    88 1   
    90    56    88 1   
    91    57    88 1   
@<TRIPOS>SUBSTRUCTURE
     1 6NV         1 TEMP              0 ****  ****    0 ROOT
