@<TRIPOS>MOLECULE
6NV
   88    91     1     0     0
SMALL
No Charge or Current Charge


@<TRIPOS>ATOM
      1 N1           0.5860     0.9230     1.2760 ns         1 6NV      -0.487900
      2 C4           0.6180     3.8320     0.7790 ca         1 6NV      -0.121300
      3 C5           0.3190     4.2760    -0.5220 ca         1 6NV      -0.064000
      4 C6          -0.8690     4.9840    -0.7720 ca         1 6NV      -0.169000
      5 C7          -1.7710     5.2520     0.2710 ca         1 6NV       0.144100
      6 C10         -1.4730     4.8100     1.5780 ca         1 6NV      -0.169000
      7 C15          5.0630    -0.3720     0.0350 c3         1 6NV       0.066700
      8 C17          3.1970    -2.0560    -0.5090 ca         1 6NV      -0.092300
      9 C20          0.5670    -2.8480     0.1410 ca         1 6NV      -0.112000
     10 C21          0.8100    -2.1070    -1.0270 ca         1 6NV      -0.110500
     11 C22          2.1200    -1.7130    -1.3520 ca         1 6NV      -0.102500
     12 C26          7.9240    -1.3180     1.0510 c3         1 6NV      -0.083100
     13 C30         -5.6510    -2.9230     0.0400 cc         1 6NV      -0.040300
     14 C31         -6.3460    -2.9300    -1.1510 cd         1 6NV      -0.098800
     15 C32         -7.4680    -3.7490    -1.5920 cf         1 6NV      -0.124200
     16 C33         -7.9760    -3.5520    -2.8340 c2         1 6NV      -0.226200
     17 C34         -7.4210    -2.4970    -3.8050 c6         1 6NV      -0.030000
     18 C35         -6.2440    -1.6940    -3.2390 c2         1 6NV      -0.104200
     19 C36         -5.7770    -1.9370    -1.9850 cd         1 6NV      -0.089000
     20 C37         -4.7090    -1.3070    -1.2900 cd         1 6NV      -0.091000
     21 C38         -4.6280    -1.9080    -0.0490 cc         1 6NV      -0.148600
     22 O40         -3.5750    -2.0970     2.1110 o          1 6NV      -0.609100
     23 N41         -2.7730    -0.5500     0.6600 ns         1 6NV      -0.500900
     24 C42         -1.6930    -0.0100     1.5130 c3         1 6NV       0.034700
     25 C43         -2.2660     0.9650     2.5680 c3         1 6NV      -0.105100
     26 C44         -0.6100     0.6750     0.6350 c          1 6NV       0.599100
     27 O45         -0.7900     0.9560    -0.5450 o          1 6NV      -0.612100
     28 C2           1.7710     1.5480     0.6460 c3         1 6NV       0.030700
     29 C3           1.8940     3.0390     1.0460 c3         1 6NV      -0.030100
     30 C11         -0.2830     4.1050     1.8270 ca         1 6NV      -0.064000
     31 O8          -2.9240     5.9460    -0.0360 os         1 6NV      -0.341100
     32 C9          -3.9160     6.2620     0.9570 c3         1 6NV       0.148900
     33 C12          3.0390     0.7490     1.0380 c          1 6NV       0.587100
     34 O13          3.1750     0.2170     2.1330 o          1 6NV      -0.590100
     35 N14          3.9950     0.6480     0.0460 ns         1 6NV      -0.502900
     36 C16          4.6140    -1.5830    -0.8310 c3         1 6NV      -0.048100
     37 C18          2.9470    -2.8030     0.6590 ca         1 6NV      -0.102500
     38 C19          1.6360    -3.1970     0.9830 ca         1 6NV      -0.110500
     39 C23          6.4280     0.2490    -0.4020 c3         1 6NV       0.170300
     40 O24          6.6860     1.4080     0.4030 oh         1 6NV      -0.653000
     41 C25          7.6590    -0.7130    -0.3580 c3         1 6NV      -0.052700
     42 C27          8.9210    -0.0170    -0.9350 c3         1 6NV       0.166600
     43 O28          9.9660    -0.9720    -1.1720 oh         1 6NV      -0.667000
     44 H1           0.6620     0.6200     2.2400 hn         1 6NV       0.334500
     45 H2           1.0030     4.0670    -1.3420 ha         1 6NV       0.108500
     46 H3          -1.0960     5.3210    -1.7800 ha         1 6NV       0.122000
     47 H4          -2.1480     5.0000     2.4060 ha         1 6NV       0.122000
     48 H5           5.1840    -0.7400     1.0630 h1         1 6NV       0.101700
     49 H6          -0.4470    -3.1500     0.3940 ha         1 6NV       0.126000
     50 H7          -0.0160    -1.8330    -1.6790 ha         1 6NV       0.117000
     51 H8           2.2950    -1.1290    -2.2530 ha         1 6NV       0.109500
     52 H9           8.7870    -1.9930     1.0310 hc         1 6NV       0.042033
     53 H10          8.1270    -0.5310     1.7860 hc         1 6NV       0.042033
     54 H11          7.0660    -1.9040     1.4000 hc         1 6NV       0.042033
     55 H12         -4.9920    -4.3970     1.4720 hc         1 6NV       0.048367
     56 H13         -6.1230    -3.1960     2.1280 hc         1 6NV       0.048367
     57 H14         -6.7130    -4.4970     1.0890 hc         1 6NV       0.048367
     58 H16         -8.8160    -4.1560    -3.1830 ha         1 6NV       0.178000
     59 H17         -7.1050    -2.9920    -4.7340 hc         1 6NV       0.069700
     60 H18         -8.2260    -1.8050    -4.0860 hc         1 6NV       0.069700
     61 H19         -5.8040    -0.9290    -3.8790 ha         1 6NV       0.181000
     62 H20         -4.0880    -0.5070    -1.6800 ha         1 6NV       0.131000
     63 H21         -2.8710    -0.1700    -0.2730 hn         1 6NV       0.339500
     64 H22         -1.2030    -0.8460     2.0300 h1         1 6NV       0.087700
     65 H23         -2.7440     1.8240     2.0810 hc         1 6NV       0.049367
     66 H24         -3.0130     0.4660     3.1970 hc         1 6NV       0.049367
     67 H25         -1.4720     1.3420     3.2240 hc         1 6NV       0.049367
     68 H26          1.6680     1.4820    -0.4440 h1         1 6NV       0.087700
     69 H27          2.7340     3.4860     0.5010 hc         1 6NV       0.061200
     70 H28          2.1580     3.1010     2.1090 hc         1 6NV       0.061200
     71 H29         -0.0650     3.7620     2.8370 ha         1 6NV       0.108500
     72 H30         -4.7480     6.8120     0.5010 h1         1 6NV       0.040700
     73 H31         -4.3200     5.3470     1.4090 h1         1 6NV       0.040700
     74 H32         -3.4880     6.8880     1.7500 h1         1 6NV       0.040700
     75 H33          3.7870     1.1190    -0.8280 hn         1 6NV       0.309500
     76 H34          4.6850    -1.3080    -1.8910 hc         1 6NV       0.055200
     77 H35          5.3140    -2.4140    -0.6860 hc         1 6NV       0.055200
     78 H36          3.7670    -3.0680     1.3230 ha         1 6NV       0.109500
     79 H37          1.4500    -3.7690     1.8890 ha         1 6NV       0.117000
     80 H38          6.3070     0.5710    -1.4450 h1         1 6NV       0.020700
     81 H39          5.8070     1.7950     0.6060 ho         1 6NV       0.448000
     82 H40          7.4380    -1.5480    -1.0320 hc         1 6NV       0.059700
     83 H41          8.6560     0.4790    -1.8790 h1         1 6NV       0.025700
     84 H42          9.2650     0.7580    -0.2380 h1         1 6NV       0.025700
     85 H43         10.7360    -0.4720    -1.5240 ho         1 6NV       0.444000
     86 C39         -3.6420    -1.5570     1.0150 c          1 6NV       0.624700
     87 H15         -7.8770    -4.5040    -0.9180 ha         1 6NV       0.184000
     88 C29         -5.8830    -3.8010     1.2460 c3         1 6NV      -0.033800
@<TRIPOS>BOND
     1     1    26 1   
     2     1    28 1   
     3     1    44 1   
     4     2     3 ar  
     5     2    29 1   
     6     2    30 ar  
     7     3     4 ar  
     8     3    45 1   
     9     4     5 ar  
    10     4    46 1   
    11     5     6 ar  
    12     5    31 1   
    13     6    30 ar  
    14     6    47 1   
    15     7    35 1   
    16     7    36 1   
    17     7    39 1   
    18     7    48 1   
    19     8    11 ar  
    20     8    36 1   
    21     8    37 ar  
    22     9    10 ar  
    23     9    38 ar  
    24     9    49 1   
    25    10    11 ar  
    26    10    50 1   
    27    11    51 1   
    28    12    41 1   
    29    12    52 1   
    30    12    53 1   
    31    12    54 1   
    32    13    14 2   
    33    13    21 1   
    34    13    88 1   
    35    14    15 1   
    36    14    19 1   
    37    15    16 2   
    38    15    87 1   
    39    16    17 1   
    40    16    58 1   
    41    17    18 1   
    42    17    59 1   
    43    17    60 1   
    44    18    19 2   
    45    18    61 1   
    46    19    20 1   
    47    20    21 2   
    48    20    62 1   
    49    21    86 1   
    50    22    86 2   
    51    23    24 1   
    52    23    63 1   
    53    23    86 1   
    54    24    25 1   
    55    24    26 1   
    56    24    64 1   
    57    25    65 1   
    58    25    66 1   
    59    25    67 1   
    60    26    27 2   
    61    28    29 1   
    62    28    33 1   
    63    28    68 1   
    64    29    69 1   
    65    29    70 1   
    66    30    71 1   
    67    31    32 1   
    68    32    72 1   
    69    32    73 1   
    70    32    74 1   
    71    33    34 2   
    72    33    35 1   
    73    35    75 1   
    74    36    76 1   
    75    36    77 1   
    76    37    38 ar  
    77    37    78 1   
    78    38    79 1   
    79    39    40 1   
    80    39    41 1   
    81    39    80 1   
    82    40    81 1   
    83    41    42 1   
    84    41    82 1   
    85    42    43 1   
    86    42    83 1   
    87    42    84 1   
    88    43    85 1   
    89    55    88 1   
    90    56    88 1   
    91    57    88 1   
@<TRIPOS>SUBSTRUCTURE
     1 6NV         1 TEMP              0 ****  ****    0 ROOT
