@<TRIPOS>MOLECULE
6NX
   27    27     1     0     0
SMALL
No Charge or Current Charge


@<TRIPOS>ATOM
      1 C1           4.3920    -0.0330    -0.1020 c3         1 6NX       0.107300
      2 N2           3.0280     0.4290    -0.3640 ns         1 6NX      -0.525900
      3 C3           1.9150    -0.0920     0.2350 c          1 6NX       0.642100
      4 O4           1.9510    -0.9950     1.0540 o          1 6NX      -0.642100
      5 N5           0.7620     0.5140    -0.1800 ns         1 6NX      -0.512900
      6 C6          -0.5900     0.1620     0.2660 c6         1 6NX       0.116700
      7 C7          -1.5420     1.3740     0.0860 c6         1 6NX      -0.091400
      8 C8          -2.9890     1.0270     0.5180 c6         1 6NX      -0.070900
      9 C9          -3.5250    -0.2000    -0.2610 c6         1 6NX      -0.077400
     10 C10         -2.5770    -1.4140    -0.1090 c6         1 6NX      -0.070900
     11 C11         -1.1320    -1.0530    -0.5350 c6         1 6NX      -0.091400
     12 H11C         5.0980     0.5470    -0.7100 h1         1 6NX       0.037700
     13 H12C         4.6310     0.1050     0.9610 h1         1 6NX       0.037700
     14 H13C         4.4790    -1.0960    -0.3610 h1         1 6NX       0.037700
     15 H2           2.8910     1.1780    -1.0290 hn         1 6NX       0.303500
     16 H5           0.8570     1.2550    -0.8620 hn         1 6NX       0.294500
     17 H6          -0.5500    -0.1010     1.3340 h1         1 6NX       0.082700
     18 H71C        -1.1770     2.2240     0.6780 hc         1 6NX       0.043450
     19 H72C        -1.5400     1.7000    -0.9630 hc         1 6NX       0.043450
     20 H111        -1.1090    -0.8310    -1.6110 hc         1 6NX       0.043450
     21 H112        -0.4780    -1.9220    -0.3830 hc         1 6NX       0.043450
     22 H81C        -3.0140     0.8210     1.5970 hc         1 6NX       0.042700
     23 H82C        -3.6460     1.8910     0.3500 hc         1 6NX       0.042700
     24 H91C        -4.5290    -0.4620     0.1000 hc         1 6NX       0.038700
     25 H92C        -3.6320     0.0550    -1.3240 hc         1 6NX       0.038700
     26 H101        -2.5790    -1.7580     0.9350 hc         1 6NX       0.042700
     27 H102        -2.9460    -2.2530    -0.7150 hc         1 6NX       0.042700
@<TRIPOS>BOND
     1     1     2 1   
     2     1    12 1   
     3     1    13 1   
     4     1    14 1   
     5     2     3 1   
     6     2    15 1   
     7     3     4 2   
     8     3     5 1   
     9     5     6 1   
    10     5    16 1   
    11     6     7 1   
    12     6    11 1   
    13     6    17 1   
    14     7     8 1   
    15     7    18 1   
    16     7    19 1   
    17     8     9 1   
    18     8    22 1   
    19     8    23 1   
    20     9    10 1   
    21     9    24 1   
    22     9    25 1   
    23    10    11 1   
    24    10    26 1   
    25    10    27 1   
    26    11    20 1   
    27    11    21 1   
@<TRIPOS>SUBSTRUCTURE
     1 6NX         1 TEMP              0 ****  ****    0 ROOT
