@<TRIPOS>MOLECULE
6NX
   27    27     1     0     0
SMALL
abcg2


@<TRIPOS>ATOM
      1 C1           4.2910    -0.1080    -0.0280 c3         1 6NX       0.107300
      2 N2           2.9980     0.3620    -0.4610 ns         1 6NX      -0.525900
      3 C3           1.8630    -0.0010     0.1890 c          1 6NX       0.642100
      4 O4           1.8700    -0.8410     1.0860 o          1 6NX      -0.642100
      5 N5           0.7320     0.6400    -0.2160 ns         1 6NX      -0.512900
      6 C6          -0.5860     0.2130     0.2070 c6         1 6NX       0.116700
      7 C7          -1.5620     1.3830     0.1140 c6         1 6NX      -0.091400
      8 C8          -2.9610     0.9740     0.5650 c6         1 6NX      -0.070900
      9 C9          -3.4770    -0.2300    -0.2170 c6         1 6NX      -0.077400
     10 C10         -2.4980    -1.3960    -0.1380 c6         1 6NX      -0.070900
     11 C11         -1.1030    -0.9830    -0.5950 c6         1 6NX      -0.091400
     12 H11C         5.0410     0.2800    -0.7120 h1         1 6NX       0.037700
     13 H12C         4.5470     0.2240     0.9810 h1         1 6NX       0.037700
     14 H13C         4.3490    -1.1960    -0.0510 h1         1 6NX       0.037700
     15 H2           2.9780     1.1490    -1.0870 hn         1 6NX       0.303500
     16 H5           0.7720     1.1770    -1.0690 hn         1 6NX       0.294500
     17 H6          -0.5100    -0.0820     1.2570 h1         1 6NX       0.082700
     18 H71C        -1.1960     2.2180     0.7170 hc         1 6NX       0.043450
     19 H72C        -1.6040     1.7380    -0.9240 hc         1 6NX       0.043450
     20 H111        -1.1280    -0.7100    -1.6570 hc         1 6NX       0.043450
     21 H112        -0.4040    -1.8180    -0.4990 hc         1 6NX       0.043450
     22 H81C        -2.9370     0.7270     1.6320 hc         1 6NX       0.042700
     23 H82C        -3.6460     1.8180     0.4600 hc         1 6NX       0.042700
     24 H91C        -4.4570    -0.5300     0.1590 hc         1 6NX       0.038700
     25 H92C        -3.6200     0.0530    -1.2660 hc         1 6NX       0.038700
     26 H101        -2.4470    -1.7570     0.8960 hc         1 6NX       0.042700
     27 H102        -2.8550    -2.2360    -0.7390 hc         1 6NX       0.042700
@<TRIPOS>BOND
     1     1     2 1   
     2     1    12 1   
     3     1    13 1   
     4     1    14 1   
     5     2     3 1   
     6     2    15 1   
     7     3     4 2   
     8     3     5 1   
     9     5     6 1   
    10     5    16 1   
    11     6     7 1   
    12     6    11 1   
    13     6    17 1   
    14     7     8 1   
    15     7    18 1   
    16     7    19 1   
    17     8     9 1   
    18     8    22 1   
    19     8    23 1   
    20     9    10 1   
    21     9    24 1   
    22     9    25 1   
    23    10    11 1   
    24    10    26 1   
    25    10    27 1   
    26    11    20 1   
    27    11    21 1   
@<TRIPOS>SUBSTRUCTURE
     1 6NX         1 TEMP              0 ****  ****    0 ROOT
