@<TRIPOS>MOLECULE
6NY
   43    44     1     0     0
SMALL
No Charge or Current Charge


@<TRIPOS>ATOM
      1 O01          5.0310     0.0580    -0.7390 o          1 6NY      -0.592100
      2 C02          3.8900    -0.1780    -0.3560 c          1 6NY       0.611700
      3 N03          3.4740     0.2100     0.9420 n          1 6NY      -0.407800
      4 C04          2.4410    -0.5620     1.6720 c3         1 6NY       0.086800
      5 C05          4.3770     1.0260     1.7830 c3         1 6NY       0.086800
      6 C06          2.8780    -0.8030    -1.3030 ca         1 6NY      -0.107600
      7 C07          1.5000    -0.4830    -1.2490 ca         1 6NY      -0.168000
      8 C08          0.5860    -1.0820    -2.1390 ca         1 6NY       0.111100
      9 O09         -0.7620    -0.8000    -2.0830 os         1 6NY      -0.247200
     10 C10         -1.3560    -0.2360    -0.9720 ca         1 6NY       0.052100
     11 C11         -1.8260     1.0850    -1.0630 ca         1 6NY      -0.080000
     12 C12         -2.4210     1.7150     0.0490 ca         1 6NY      -0.124300
     13 C13         -2.9180     3.1560    -0.0770 c3         1 6NY       0.220600
     14 O14         -4.3450     3.1650    -0.1330 oh         1 6NY      -0.650000
     15 C15         -2.4550     4.0680     1.0770 c3         1 6NY      -0.129100
     16 C16         -2.5520     0.9900     1.2530 ca         1 6NY      -0.074000
     17 C17         -2.0910    -0.3350     1.3430 ca         1 6NY      -0.126000
     18 C18         -1.4850    -0.9630     0.2380 ca         1 6NY       0.228000
     19 N19         -1.0390    -2.3000     0.3220 nu         1 6NY      -0.664700
     20 O20         -0.4730    -2.7260     1.6000 oh         1 6NY      -0.460300
     21 C21          1.0460    -1.9800    -3.1140 ca         1 6NY      -0.122000
     22 C22          2.4140    -2.2820    -3.2010 ca         1 6NY      -0.087000
     23 C23          3.3240    -1.6940    -2.3050 ca         1 6NY      -0.096000
     24 H041         2.7710    -0.7540     2.7010 h1         1 6NY       0.042867
     25 H042         1.5030     0.0070     1.7050 h1         1 6NY       0.042867
     26 H043         2.2630    -1.5300     1.1860 h1         1 6NY       0.042867
     27 H051         4.7530     1.8820     1.2070 h1         1 6NY       0.042867
     28 H053         3.8380     1.4050     2.6610 h1         1 6NY       0.042867
     29 H052         5.2260     0.4160     2.1180 h1         1 6NY       0.042867
     30 H071         1.1460     0.2510    -0.5320 ha         1 6NY       0.134000
     31 H111        -1.7180     1.6220    -2.0020 ha         1 6NY       0.130000
     32 H131        -2.5120     3.5810    -1.0070 h1         1 6NY       0.079700
     33 H141        -4.6550     2.6020     0.6080 ho         1 6NY       0.440000
     34 H151        -1.3620     4.0420     1.1670 hc         1 6NY       0.046367
     35 H152        -2.7540     5.1060     0.8850 hc         1 6NY       0.046367
     36 H153        -2.8880     3.7630     2.0360 hc         1 6NY       0.046367
     37 H161        -3.0180     1.4440     2.1250 ha         1 6NY       0.119000
     38 H171        -2.2130    -0.8770     2.2770 ha         1 6NY       0.128000
     39 H191        -0.4390    -2.5900    -0.4620 hn         1 6NY       0.461000
     40 H201        -0.7760    -3.6560     1.7570 ho         1 6NY       0.465000
     41 H211         0.3420    -2.4360    -3.8050 ha         1 6NY       0.133000
     42 H221         2.7710    -2.9730    -3.9620 ha         1 6NY       0.121000
     43 H231         4.3810    -1.9420    -2.3820 ha         1 6NY       0.132000
@<TRIPOS>BOND
     1     1     2 2   
     2     2     3 1   
     3     2     6 1   
     4     3     4 1   
     5     3     5 1   
     6     4    24 1   
     7     4    25 1   
     8     4    26 1   
     9     5    27 1   
    10     5    28 1   
    11     5    29 1   
    12     6     7 ar  
    13     6    23 ar  
    14     7     8 ar  
    15     7    30 1   
    16     8     9 1   
    17     8    21 ar  
    18     9    10 1   
    19    10    11 ar  
    20    10    18 ar  
    21    11    12 ar  
    22    11    31 1   
    23    12    13 1   
    24    12    16 ar  
    25    13    14 1   
    26    13    15 1   
    27    13    32 1   
    28    14    33 1   
    29    15    34 1   
    30    15    35 1   
    31    15    36 1   
    32    16    17 ar  
    33    16    37 1   
    34    17    18 ar  
    35    17    38 1   
    36    18    19 1   
    37    19    20 1   
    38    19    39 1   
    39    20    40 1   
    40    21    22 ar  
    41    21    41 1   
    42    22    23 ar  
    43    22    42 1   
    44    23    43 1   
@<TRIPOS>SUBSTRUCTURE
     1 6NY         1 TEMP              0 ****  ****    0 ROOT
