@<TRIPOS>MOLECULE
6NY
   43    44     1     0     0
SMALL
bcc


@<TRIPOS>ATOM
      1 O01          4.5520     0.9400    -0.5650 o          1 6NY      -0.592100
      2 C02          3.6670     0.1890    -0.1730 c          1 6NY       0.678700
      3 N03          3.4320    -0.0440     1.1330 n          1 6NY      -0.474800
      4 C04          2.6680    -1.1620     1.6550 c3         1 6NY       0.086800
      5 C05          4.1840     0.6950     2.1270 c3         1 6NY       0.086800
      6 C06          2.7680    -0.4720    -1.1720 ca         1 6NY      -0.107600
      7 C07          1.3850    -0.3710    -1.0460 ca         1 6NY      -0.186000
      8 C08          0.5640    -0.9450    -2.0080 ca         1 6NY       0.111100
      9 O09         -0.7980    -0.9200    -1.9420 os         1 6NY      -0.247200
     10 C10         -1.3990    -0.3290    -0.8520 ca         1 6NY       0.052100
     11 C11         -1.9500     0.9280    -0.9980 ca         1 6NY      -0.098000
     12 C12         -2.6080     1.5500     0.0590 ca         1 6NY      -0.124300
     13 C13         -3.1820     2.9400    -0.1320 c3         1 6NY       0.197400
     14 O14         -4.1530     3.2610     0.8380 oh         1 6NY      -0.587800
     15 C15         -2.0730     3.9850    -0.1800 c3         1 6NY      -0.129100
     16 C16         -2.6850     0.8660     1.2640 ca         1 6NY      -0.092000
     17 C17         -2.1260    -0.3960     1.4190 ca         1 6NY      -0.144000
     18 C18         -1.4740    -1.0250     0.3620 ca         1 6NY       0.089600
     19 N19         -0.9830    -2.3270     0.4560 nu         1 6NY      -0.471100
     20 O20         -0.6560    -2.7020     1.7520 oh         1 6NY      -0.421300
     21 C21          1.1180    -1.6080    -3.0990 ca         1 6NY      -0.140000
     22 C22          2.4940    -1.6850    -3.2220 ca         1 6NY      -0.105000
     23 C23          3.3270    -1.1120    -2.2690 ca         1 6NY      -0.114000
     24 H041         3.2910    -1.7320     2.3470 h1         1 6NY       0.042867
     25 H042         1.7830    -0.8220     2.1950 h1         1 6NY       0.042867
     26 H043         2.3560    -1.8360     0.8640 h1         1 6NY       0.042867
     27 H051         4.4310     1.6890     1.7650 h1         1 6NY       0.042867
     28 H053         3.5760     0.7950     3.0250 h1         1 6NY       0.042867
     29 H052         5.1090     0.1810     2.3970 h1         1 6NY       0.042867
     30 H071         0.9610     0.1610    -0.2030 ha         1 6NY       0.152000
     31 H111        -1.8660     1.4200    -1.9610 ha         1 6NY       0.148000
     32 H131        -3.7090     2.9550    -1.0910 h1         1 6NY       0.079700
     33 H141        -3.7080     3.5620     1.6370 ho         1 6NY       0.401000
     34 H151        -1.3720     3.7790    -0.9890 hc         1 6NY       0.046367
     35 H152        -2.4870     4.9810    -0.3430 hc         1 6NY       0.046367
     36 H153        -1.5050     3.9930     0.7540 hc         1 6NY       0.046367
     37 H161        -3.1930     1.3070     2.1120 ha         1 6NY       0.137000
     38 H171        -2.2060    -0.8950     2.3740 ha         1 6NY       0.146000
     39 H191        -0.1780    -2.5150    -0.1290 hn         1 6NY       0.405800
     40 H201        -1.2530    -3.4310     1.9530 ho         1 6NY       0.426000
     41 H211         0.4710    -2.0580    -3.8410 ha         1 6NY       0.151000
     42 H221         2.9220    -2.1990    -4.0720 ha         1 6NY       0.139000
     43 H231         4.4020    -1.1780    -2.3760 ha         1 6NY       0.150000
@<TRIPOS>BOND
     1     1     2 2   
     2     2     3 1   
     3     2     6 1   
     4     3     4 1   
     5     3     5 1   
     6     4    24 1   
     7     4    25 1   
     8     4    26 1   
     9     5    27 1   
    10     5    28 1   
    11     5    29 1   
    12     6     7 ar  
    13     6    23 ar  
    14     7     8 ar  
    15     7    30 1   
    16     8     9 1   
    17     8    21 ar  
    18     9    10 1   
    19    10    11 ar  
    20    10    18 ar  
    21    11    12 ar  
    22    11    31 1   
    23    12    13 1   
    24    12    16 ar  
    25    13    14 1   
    26    13    15 1   
    27    13    32 1   
    28    14    33 1   
    29    15    34 1   
    30    15    35 1   
    31    15    36 1   
    32    16    17 ar  
    33    16    37 1   
    34    17    18 ar  
    35    17    38 1   
    36    18    19 1   
    37    19    20 1   
    38    19    39 1   
    39    20    40 1   
    40    21    22 ar  
    41    21    41 1   
    42    22    23 ar  
    43    22    42 1   
    44    23    43 1   
@<TRIPOS>SUBSTRUCTURE
     1 6NY         1 TEMP              0 ****  ****    0 ROOT
