@<TRIPOS>MOLECULE
6NZ
   37    38     1     0     0
SMALL
abcg2


@<TRIPOS>ATOM
      1 C1           4.3540    -2.7740    -0.1120 c3         1 6NZ      -0.088100
      2 C2           3.3560    -1.6910    -0.4950 c3         1 6NZ      -0.073400
      3 C3           2.7000    -1.0510     0.7310 c3         1 6NZ      -0.018200
      4 C4           1.7220     0.0250     0.3710 cc         1 6NZ      -0.204400
      5 C5           0.3800    -0.2030     0.3080 cd         1 6NZ      -0.094000
      6 C6          -0.5630     0.7940    -0.0670 cd         1 6NZ      -0.178200
      7 C7          -0.0560     2.0160    -0.3630 cc         1 6NZ      -0.040400
      8 N8           1.2790     2.2550    -0.2990 ns         1 6NZ      -0.362100
      9 C10          2.2410     1.3370     0.0480 c          1 6NZ       0.548200
     10 O11          3.4310     1.6550     0.0700 o          1 6NZ      -0.568000
     11 C12         -2.0380     0.5060    -0.1370 c6         1 6NZ       0.001500
     12 C13         -2.3500    -0.5800    -1.1730 c6         1 6NZ      -0.069400
     13 C14         -3.8440    -0.8810    -1.2440 c6         1 6NZ      -0.074400
     14 C15         -4.3940    -1.2700     0.1230 c6         1 6NZ      -0.075400
     15 C16         -4.1000    -0.1880     1.1570 c6         1 6NZ      -0.074400
     16 C17         -2.6070     0.1190     1.2340 c6         1 6NZ      -0.069400
     17 HN8          1.6070     3.1830    -0.5280 hn         1 6NZ       0.325500
     18 H1           5.1630    -2.3690     0.4990 hc         1 6NZ       0.031700
     19 H1A          3.8730    -3.5680     0.4630 hc         1 6NZ       0.031700
     20 H1B          4.8030    -3.2300    -0.9950 hc         1 6NZ       0.031700
     21 H2           3.8560    -0.9200    -1.0860 hc         1 6NZ       0.043200
     22 H2A          2.5780    -2.1150    -1.1350 hc         1 6NZ       0.043200
     23 H3           2.1860    -1.8270     1.3040 hc         1 6NZ       0.050700
     24 H3A          3.4780    -0.6440     1.3810 hc         1 6NZ       0.050700
     25 H5           0.0170    -1.1950     0.5570 ha         1 6NZ       0.185000
     26 H7          -0.6680     2.8570    -0.6590 h4         1 6NZ       0.198000
     27 H12         -2.5410     1.4270    -0.4570 hc         1 6NZ       0.045700
     28 H13         -1.9760    -0.2710    -2.1530 hc         1 6NZ       0.041700
     29 H13A        -1.8130    -1.4980    -0.9090 hc         1 6NZ       0.041700
     30 H14         -4.3770     0.0040    -1.6110 hc         1 6NZ       0.039200
     31 H14A        -4.0280    -1.6760    -1.9700 hc         1 6NZ       0.039200
     32 H15         -5.4690    -1.4550     0.0630 hc         1 6NZ       0.039700
     33 H15A        -3.9330    -2.2120     0.4430 hc         1 6NZ       0.039700
     34 H16         -4.6430     0.7240     0.8890 hc         1 6NZ       0.039200
     35 H16A        -4.4670    -0.4900     2.1410 hc         1 6NZ       0.039200
     36 H17         -2.0750    -0.7600     1.6140 hc         1 6NZ       0.041700
     37 H17A        -2.4240     0.9270     1.9470 hc         1 6NZ       0.041700
@<TRIPOS>BOND
     1     1     2 1   
     2     1    18 1   
     3     1    19 1   
     4     1    20 1   
     5     2     3 1   
     6     2    21 1   
     7     2    22 1   
     8     3     4 1   
     9     3    23 1   
    10     3    24 1   
    11     4     5 2   
    12     4     9 1   
    13     5     6 1   
    14     5    25 1   
    15     6     7 2   
    16     6    11 1   
    17     7     8 1   
    18     7    26 1   
    19     8     9 1   
    20     8    17 1   
    21     9    10 2   
    22    11    12 1   
    23    11    16 1   
    24    11    27 1   
    25    12    13 1   
    26    12    28 1   
    27    12    29 1   
    28    13    14 1   
    29    13    30 1   
    30    13    31 1   
    31    14    15 1   
    32    14    32 1   
    33    14    33 1   
    34    15    16 1   
    35    15    34 1   
    36    15    35 1   
    37    16    36 1   
    38    16    37 1   
@<TRIPOS>SUBSTRUCTURE
     1 6NZ         1 TEMP              0 ****  ****    0 ROOT
