@<TRIPOS>MOLECULE
6NZ
   37    38     1     0     0
SMALL
No Charge or Current Charge


@<TRIPOS>ATOM
      1 C1           4.4370    -2.7930    -0.0990 c3         1 6NZ      -0.088100
      2 C2           3.4040    -1.7150    -0.4790 c3         1 6NZ      -0.073400
      3 C3           2.7630    -1.0280     0.7460 c3         1 6NZ      -0.018200
      4 C4           1.7340     0.0130     0.3610 cc         1 6NZ      -0.204400
      5 C5           0.3750    -0.2600     0.3080 cd         1 6NZ      -0.094000
      6 C6          -0.5610     0.7760    -0.0690 cd         1 6NZ      -0.178200
      7 C7          -0.0630     2.0290    -0.3690 cc         1 6NZ      -0.040400
      8 N8           1.2970     2.2770    -0.3080 ns         1 6NZ      -0.362100
      9 C10          2.2610     1.3670     0.0360 c          1 6NZ       0.548200
     10 O11          3.4410     1.6860     0.0590 o          1 6NZ      -0.568000
     11 C12         -2.0560     0.5020    -0.1380 c6         1 6NZ       0.001500
     12 C13         -2.3840    -0.5810    -1.2020 c6         1 6NZ      -0.069400
     13 C14         -3.9070    -0.8580    -1.2720 c6         1 6NZ      -0.074400
     14 C15         -4.4690    -1.2560     0.1150 c6         1 6NZ      -0.075400
     15 C16         -4.1440    -0.1800     1.1810 c6         1 6NZ      -0.074400
     16 C17         -2.6210     0.0970     1.2520 c6         1 6NZ      -0.069400
     17 HN8          1.6470     3.2020    -0.5310 hn         1 6NZ       0.325500
     18 H1           5.2580    -2.3570     0.4830 hc         1 6NZ       0.031700
     19 H1A          3.9700    -3.5850     0.4990 hc         1 6NZ       0.031700
     20 H1B          4.8620    -3.2500    -1.0010 hc         1 6NZ       0.031700
     21 H2           3.8920    -0.9590    -1.1070 hc         1 6NZ       0.043200
     22 H2A          2.6160    -2.1740    -1.0890 hc         1 6NZ       0.043200
     23 H3           2.2920    -1.7950     1.3740 hc         1 6NZ       0.050700
     24 H3A          3.5500    -0.5800     1.3660 hc         1 6NZ       0.050700
     25 H5           0.0180    -1.2580     0.5480 ha         1 6NZ       0.185000
     26 H7          -0.6500     2.8950    -0.6650 h4         1 6NZ       0.198000
     27 H12         -2.5690     1.4260    -0.4420 hc         1 6NZ       0.045700
     28 H13         -2.0220    -0.2570    -2.1870 hc         1 6NZ       0.041700
     29 H13A        -1.8560    -1.5160    -0.9700 hc         1 6NZ       0.041700
     30 H14         -4.4290     0.0360    -1.6410 hc         1 6NZ       0.039200
     31 H14A        -4.1070    -1.6580    -1.9990 hc         1 6NZ       0.039200
     32 H15         -5.5560    -1.4000     0.0500 hc         1 6NZ       0.039700
     33 H15A        -4.0440    -2.2220     0.4230 hc         1 6NZ       0.039700
     34 H16         -4.6790     0.7500     0.9440 hc         1 6NZ       0.039200
     35 H16A        -4.5090    -0.5070     2.1640 hc         1 6NZ       0.039200
     36 H17         -2.1070    -0.7990     1.6260 hc         1 6NZ       0.041700
     37 H17A        -2.4250     0.8950     1.9810 hc         1 6NZ       0.041700
@<TRIPOS>BOND
     1     1     2 1   
     2     1    18 1   
     3     1    19 1   
     4     1    20 1   
     5     2     3 1   
     6     2    21 1   
     7     2    22 1   
     8     3     4 1   
     9     3    23 1   
    10     3    24 1   
    11     4     5 2   
    12     4     9 1   
    13     5     6 1   
    14     5    25 1   
    15     6     7 2   
    16     6    11 1   
    17     7     8 1   
    18     7    26 1   
    19     8     9 1   
    20     8    17 1   
    21     9    10 2   
    22    11    12 1   
    23    11    16 1   
    24    11    27 1   
    25    12    13 1   
    26    12    28 1   
    27    12    29 1   
    28    13    14 1   
    29    13    30 1   
    30    13    31 1   
    31    14    15 1   
    32    14    32 1   
    33    14    33 1   
    34    15    16 1   
    35    15    34 1   
    36    15    35 1   
    37    16    36 1   
    38    16    37 1   
@<TRIPOS>SUBSTRUCTURE
     1 6NZ         1 TEMP              0 ****  ****    0 ROOT
