@<TRIPOS>MOLECULE
6O2
   49    52     1     0     0
SMALL
abcg2


@<TRIPOS>ATOM
      1 C8          -7.1490    -0.8140    -0.2870 ca         1 6O2       0.051000
      2 C5          -2.7630     0.0070    -0.0270 ca         1 6O2       0.446900
      3 C6          -4.8480    -1.3550     0.2010 ca         1 6O2       0.303000
      4 N1          -1.2400     2.2590    -0.6970 nb         1 6O2      -0.202000
      5 C2           1.7210     1.8130    -0.0810 c5         1 6O2       0.314300
      6 N3          -3.4860    -1.0890     0.2990 nu         1 6O2      -0.918900
      7 C4          -2.5450     2.1400    -0.8490 ca         1 6O2       0.181900
      8 C13         -8.9380     0.9350    -1.1040 c1         1 6O2      -0.223000
      9 C12         -8.1180     0.1350    -0.7350 cg         1 6O2      -0.128000
     10 C7          -5.8040    -0.4400    -0.2370 ca         1 6O2      -0.110000
     11 C9          -7.5510    -2.0930     0.0960 ca         1 6O2      -0.115000
     12 C10         -6.5930    -2.9960     0.5280 ca         1 6O2      -0.085000
     13 C11         -5.2580    -2.6380     0.5820 ca         1 6O2      -0.161000
     14 N2          -3.3180     1.0960    -0.5480 nb         1 6O2      -0.278000
     15 C3          -0.6980     1.1630    -0.1760 ca         1 6O2       0.140500
     16 C14         -1.3740     0.0070     0.1840 ca         1 6O2      -0.093600
     17 N4          -0.5090    -0.9290     0.6830 nc         1 6O2      -0.561100
     18 C15          0.6560    -0.3530     0.6310 cd         1 6O2       0.410700
     19 N            0.6110     0.9170     0.1210 na         1 6O2      -0.285300
     20 O1           2.7070     1.1610    -0.8320 os         1 6O2      -0.432000
     21 C16          2.4060     2.2510     1.2120 c5         1 6O2       0.080300
     22 O2           1.7200     3.3250     1.7750 oh         1 6O2      -0.689000
     23 C17          3.8150     2.5730     0.7030 c5         1 6O2       0.109300
     24 O3           3.8440     3.8110     0.0460 oh         1 6O2      -0.699000
     25 C1           4.0080     1.4710    -0.3330 c5         1 6O2       0.165300
     26 C            4.6490     0.2440     0.2830 c3         1 6O2       0.184600
     27 O            4.7090    -0.7610    -0.7400 os         1 6O2      -0.540700
     28 S            4.9110    -2.2780    -0.2910 s6         1 6O2       1.397800
     29 O4           5.1020    -2.9710    -1.5420 o          1 6O2      -0.549000
     30 O5           5.9110    -2.3510     0.7490 o          1 6O2      -0.549000
     31 N5           3.4650    -2.6110     0.4070 n8         1 6O2      -1.064100
     32 H1           1.3190     2.6840    -0.6100 h2         1 6O2       0.126700
     33 H2          -2.9360    -1.8490     0.6750 hn         1 6O2       0.516000
     34 H3          -3.0610     2.9950    -1.2710 h5         1 6O2       0.052100
     35 H4          -9.6650     1.6420    -1.4330 ha         1 6O2       0.257000
     36 H5          -5.5140     0.5520    -0.5410 ha         1 6O2       0.159000
     37 H6          -8.5950    -2.3720     0.0560 ha         1 6O2       0.123000
     38 H7          -6.8860    -3.9930     0.8290 ha         1 6O2       0.116000
     39 H8          -4.5220    -3.3580     0.9200 ha         1 6O2       0.113000
     40 H9           1.5830    -0.8120     0.9390 h5         1 6O2       0.072800
     41 H10          2.4650     1.4010     1.9050 h1         1 6O2       0.050700
     42 H11          1.9640     3.4000     2.7030 ho         1 6O2       0.517000
     43 H12          4.5610     2.5200     1.5070 h1         1 6O2       0.057700
     44 H13          3.4100     4.4600     0.6130 ho         1 6O2       0.526000
     45 H14          4.6270     1.8230    -1.1630 h1         1 6O2       0.115700
     46 H15          5.6570     0.4890     0.6180 h1         1 6O2       0.056700
     47 H16          4.0750    -0.1150     1.1420 h1         1 6O2       0.056700
     48 H17          2.7500    -2.8860    -0.2570 hn         1 6O2       0.490500
     49 H18          3.5410    -3.2760     1.1680 hn         1 6O2       0.490500
@<TRIPOS>BOND
     1     1     9 1   
     2     1    10 ar  
     3     1    11 ar  
     4     2     6 1   
     5     2    14 ar  
     6     2    16 ar  
     7     3     6 1   
     8     3    10 ar  
     9     3    13 ar  
    10     4     7 ar  
    11     4    15 ar  
    12     5    19 1   
    13     5    20 1   
    14     5    21 1   
    15     5    32 1   
    16     6    33 1   
    17     7    14 ar  
    18     7    34 1   
    19     8     9 3   
    20     8    35 1   
    21    10    36 1   
    22    11    12 ar  
    23    11    37 1   
    24    12    13 ar  
    25    12    38 1   
    26    13    39 1   
    27    15    16 ar  
    28    15    19 1   
    29    16    17 1   
    30    17    18 2   
    31    18    19 1   
    32    18    40 1   
    33    20    25 1   
    34    21    22 1   
    35    21    23 1   
    36    21    41 1   
    37    22    42 1   
    38    23    24 1   
    39    23    25 1   
    40    23    43 1   
    41    24    44 1   
    42    25    26 1   
    43    25    45 1   
    44    26    27 1   
    45    26    46 1   
    46    26    47 1   
    47    27    28 1   
    48    28    29 2   
    49    28    30 2   
    50    28    31 1   
    51    31    48 1   
    52    31    49 1   
@<TRIPOS>SUBSTRUCTURE
     1 6O2         1 TEMP              0 ****  ****    0 ROOT
