@<TRIPOS>MOLECULE
6O2
   49    52     1     0     0
SMALL
No Charge or Current Charge


@<TRIPOS>ATOM
      1 C8          -6.9760    -0.9040     0.2670 ca         1 6O2       0.051000
      2 C5          -2.5170     0.1260    -0.0550 ca         1 6O2       0.446900
      3 C6          -4.5930    -1.4100     0.0680 ca         1 6O2       0.303000
      4 N1          -1.0000     2.4220     0.1860 nb         1 6O2      -0.202000
      5 C2           1.9480     1.9810    -0.8760 c5         1 6O2       0.314300
      6 N3          -3.2610    -1.0470    -0.1580 nu         1 6O2      -0.918900
      7 C4          -2.3010     2.3290     0.5470 ca         1 6O2       0.181900
      8 C13         -8.9500     0.8630     0.2180 c1         1 6O2      -0.223000
      9 C12         -8.0480     0.0490     0.2410 cg         1 6O2      -0.128000
     10 C7          -5.6530    -0.4820     0.0440 ca         1 6O2      -0.110000
     11 C9          -7.2470    -2.2620     0.5090 ca         1 6O2      -0.115000
     12 C10         -6.1980    -3.1950     0.5200 ca         1 6O2      -0.085000
     13 C11         -4.8780    -2.7670     0.2950 ca         1 6O2      -0.161000
     14 N2          -3.0890     1.2330     0.4570 nb         1 6O2      -0.278000
     15 C3          -0.4460     1.2980    -0.3100 ca         1 6O2       0.140500
     16 C14         -1.1610     0.1350    -0.4460 ca         1 6O2      -0.093600
     17 N4          -0.3970    -0.9000    -0.9740 nc         1 6O2      -0.561100
     18 C15          0.7980    -0.3050    -1.1490 cd         1 6O2       0.410700
     19 N            0.8280     1.0470    -0.7530 na         1 6O2      -0.285300
     20 O1           3.1550     1.2600    -1.2270 os         1 6O2      -0.432000
     21 C16          2.2950     2.8150     0.4200 c5         1 6O2       0.080300
     22 O2           1.9340     4.2110     0.3400 oh         1 6O2      -0.689000
     23 C17          3.8420     2.6610     0.5320 c5         1 6O2       0.109300
     24 O3           4.4760     3.6980    -0.2240 oh         1 6O2      -0.699000
     25 C1           4.0430     1.2420    -0.0800 c5         1 6O2       0.165300
     26 C            3.6990     0.0700     0.8850 c3         1 6O2       0.184600
     27 O            3.9740    -1.1670     0.2060 os         1 6O2      -0.540700
     28 S            3.7380    -2.5220     1.0730 s6         1 6O2       1.397800
     29 O4           4.8980    -2.7670     1.9220 o          1 6O2      -0.549000
     30 O5           2.3660    -2.5850     1.5690 o          1 6O2      -0.549000
     31 N5           3.8710    -3.5360    -0.1710 n8         1 6O2      -1.064100
     32 H1           1.6840     2.6560    -1.7000 h2         1 6O2       0.126700
     33 H2          -2.6530    -1.8280    -0.4060 hn         1 6O2       0.516000
     34 H3          -2.7600     3.2280     0.9550 h5         1 6O2       0.052100
     35 H4          -9.7510     1.5760     0.2000 ha         1 6O2       0.257000
     36 H5          -5.4630     0.5640    -0.1650 ha         1 6O2       0.159000
     37 H6          -8.2680    -2.5950     0.6810 ha         1 6O2       0.123000
     38 H7          -6.4070    -4.2470     0.7010 ha         1 6O2       0.116000
     39 H8          -4.0730    -3.4970     0.3070 ha         1 6O2       0.113000
     40 H9           1.6770    -0.7860    -1.5610 h5         1 6O2       0.072800
     41 H10          1.8180     2.3560     1.2980 h1         1 6O2       0.050700
     42 H11          0.9640     4.2780     0.5150 ho         1 6O2       0.517000
     43 H12          4.1730     2.6990     1.5800 h1         1 6O2       0.057700
     44 H13          3.7690     4.3940    -0.2630 ho         1 6O2       0.526000
     45 H14          5.0770     1.1030    -0.4240 h1         1 6O2       0.115700
     46 H15          4.3220     0.1670     1.7840 h1         1 6O2       0.056700
     47 H16          2.6460     0.1290     1.1930 h1         1 6O2       0.056700
     48 H17          4.1790    -2.8500    -0.8550 hn         1 6O2       0.490500
     49 H18          4.7300    -4.0030     0.1050 hn         1 6O2       0.490500
@<TRIPOS>BOND
     1     1     9 1   
     2     1    10 ar  
     3     1    11 ar  
     4     2     6 1   
     5     2    14 ar  
     6     2    16 ar  
     7     3     6 1   
     8     3    10 ar  
     9     3    13 ar  
    10     4     7 ar  
    11     4    15 ar  
    12     5    19 1   
    13     5    20 1   
    14     5    21 1   
    15     5    32 1   
    16     6    33 1   
    17     7    14 ar  
    18     7    34 1   
    19     8     9 3   
    20     8    35 1   
    21    10    36 1   
    22    11    12 ar  
    23    11    37 1   
    24    12    13 ar  
    25    12    38 1   
    26    13    39 1   
    27    15    16 ar  
    28    15    19 1   
    29    16    17 1   
    30    17    18 2   
    31    18    19 1   
    32    18    40 1   
    33    20    25 1   
    34    21    22 1   
    35    21    23 1   
    36    21    41 1   
    37    22    42 1   
    38    23    24 1   
    39    23    25 1   
    40    23    43 1   
    41    24    44 1   
    42    25    26 1   
    43    25    45 1   
    44    26    27 1   
    45    26    46 1   
    46    26    47 1   
    47    27    28 1   
    48    28    29 2   
    49    28    30 2   
    50    28    31 1   
    51    31    48 1   
    52    31    49 1   
@<TRIPOS>SUBSTRUCTURE
     1 6O2         1 TEMP              0 ****  ****    0 ROOT
