@<TRIPOS>MOLECULE
6O3
   32    34     1     0     0
SMALL
bcc


@<TRIPOS>ATOM
      1 OAS          0.2790    -2.3340    -1.4040 o          1 6O3      -0.906167
      2 PAR         -0.4930    -2.8260    -0.1800 p5         1 6O3       1.106700
      3 OAT         -2.0050    -2.9580    -0.3970 o          1 6O3      -0.906167
      4 OAU          0.1370    -4.0360     0.5200 o          1 6O3      -0.906167
      5 CAQ         -0.2940    -1.4490     1.0970 c3         1 6O3      -0.167400
      6 CAC         -0.7110    -0.1220     0.5870 cc         1 6O3       0.134600
      7 C5          -2.0910     0.2400     0.4000 ca         1 6O3      -0.273400
      8 C6          -3.2680    -0.4470     0.6910 ca         1 6O3       0.534200
      9 N1          -4.4560     0.0860     0.4510 nb         1 6O3      -0.756000
     10 C2          -4.4900     1.3030    -0.0960 ca         1 6O3       0.615900
     11 N3          -3.4540     2.0490    -0.4300 nb         1 6O3      -0.725000
     12 C4          -2.2730     1.5040    -0.1740 ca         1 6O3       0.477600
     13 SAE         -0.7580     2.2620    -0.4990 ss         1 6O3      -0.269900
     14 CAD          0.1070     0.8770     0.1520 cd         1 6O3      -0.098600
     15 CAJ          1.5710     0.9460     0.1640 ca         1 6O3       0.069200
     16 CAK          2.2840     1.3120    -0.9790 ca         1 6O3      -0.112000
     17 CAL          3.6680     1.3850    -0.9610 ca         1 6O3      -0.132500
     18 CAM          4.3920     1.0930     0.1930 ca         1 6O3      -0.121300
     19 CAP          5.8890     1.1920     0.2170 c3         1 6O3      -0.025800
     20 CAN          3.6780     0.7330     1.3340 ca         1 6O3      -0.132500
     21 CAO          2.2930     0.6690     1.3250 ca         1 6O3      -0.112000
     22 H3          -0.8770    -1.7090     1.9860 hc         1 6O3       0.041200
     23 H4           0.7510    -1.4280     1.4050 hc         1 6O3       0.041200
     24 H5          -3.2380    -1.4450     1.1070 h4         1 6O3       0.079100
     25 H6          -5.4710     1.7220    -0.2860 h5         1 6O3       0.008100
     26 H7           1.7540     1.5300    -1.8990 ha         1 6O3       0.136000
     27 H8           4.1930     1.6670    -1.8660 ha         1 6O3       0.102500
     28 H9           6.2100     2.2040     0.4750 hc         1 6O3       0.019700
     29 H10          6.3210     0.5180     0.9560 hc         1 6O3       0.019700
     30 H11          6.3230     0.9530    -0.7540 hc         1 6O3       0.019700
     31 H12          4.2110     0.5030     2.2480 ha         1 6O3       0.102500
     32 H13          1.7680     0.4090     2.2350 ha         1 6O3       0.136000
@<TRIPOS>BOND
     1     1     2 1   
     2     2     3 1   
     3     2     4 1   
     4     2     5 1   
     5     5     6 1   
     6     5    22 1   
     7     5    23 1   
     8     6     7 1   
     9     6    14 2   
    10     7     8 ar  
    11     7    12 ar  
    12     8     9 ar  
    13     8    24 1   
    14     9    10 ar  
    15    10    11 ar  
    16    10    25 1   
    17    11    12 ar  
    18    12    13 1   
    19    13    14 1   
    20    14    15 1   
    21    15    16 ar  
    22    15    21 ar  
    23    16    17 ar  
    24    16    26 1   
    25    17    18 ar  
    26    17    27 1   
    27    18    19 1   
    28    18    20 ar  
    29    19    28 1   
    30    19    29 1   
    31    19    30 1   
    32    20    21 ar  
    33    20    31 1   
    34    21    32 1   
@<TRIPOS>SUBSTRUCTURE
     1 6O3         1 TEMP              0 ****  ****    0 ROOT
