@<TRIPOS>MOLECULE
6O3
   32    34     1     0     0
SMALL
No Charge or Current Charge


@<TRIPOS>ATOM
      1 OAS         -0.1810    -2.8320    -1.3820 o          1 6O3      -0.906167
      2 PAR         -0.7190    -3.0240    -0.0050 p5         1 6O3       1.264500
      3 OAT         -2.1960    -3.2130    -0.0430 o          1 6O3      -0.906167
      4 OAU         -0.0710    -4.2020     0.6390 o          1 6O3      -0.906167
      5 CAQ         -0.3230    -1.5400     1.0000 c3         1 6O3      -0.325200
      6 CAC         -0.6970    -0.2080     0.3950 cc         1 6O3       0.134600
      7 C5          -2.0700     0.2560     0.3050 ca         1 6O3      -0.142800
      8 C6          -3.2160    -0.3320     0.8710 ca         1 6O3       0.205900
      9 N1          -4.4320     0.2430     0.7210 nb         1 6O3      -0.230000
     10 C2          -4.4760     1.3970     0.0130 ca         1 6O3       0.089900
     11 N3          -3.4270     2.0370    -0.5500 nb         1 6O3      -0.199000
     12 C4          -2.2320     1.4390    -0.3820 ca         1 6O3       0.149300
     13 SAE         -0.7180     2.0920    -0.9990 ss         1 6O3      -0.269900
     14 CAD          0.1530     0.7380    -0.1980 cd         1 6O3      -0.098600
     15 CAJ          1.6210     0.8690    -0.0380 ca         1 6O3       0.069200
     16 CAK          2.3810     1.4900    -1.0520 ca         1 6O3      -0.094000
     17 CAL          3.7720     1.6470    -0.9210 ca         1 6O3      -0.114500
     18 CAM          4.4300     1.2030     0.2380 ca         1 6O3      -0.121300
     19 CAP          5.9340     1.3800     0.3840 c3         1 6O3      -0.025800
     20 CAN          3.6790     0.6160     1.2700 ca         1 6O3      -0.114500
     21 CAO          2.2890     0.4570     1.1370 ca         1 6O3      -0.094000
     22 H3          -0.7900    -1.6640     1.9820 hc         1 6O3       0.041200
     23 H4           0.7530    -1.6390     1.1400 hc         1 6O3       0.041200
     24 H5          -3.1720    -1.2490     1.4570 h4         1 6O3       0.079100
     25 H6          -5.4530     1.8600    -0.1080 h5         1 6O3       0.008100
     26 H7           1.8980     1.8340    -1.9630 ha         1 6O3       0.118000
     27 H8           4.3360     2.1160    -1.7240 ha         1 6O3       0.084500
     28 H9           6.1700     2.3460     0.8460 hc         1 6O3       0.019700
     29 H10          6.3700     0.5930     1.0120 hc         1 6O3       0.019700
     30 H11          6.4380     1.3410    -0.5890 hc         1 6O3       0.019700
     31 H12          4.1690     0.2950     2.1860 ha         1 6O3       0.084500
     32 H13          1.7310     0.0580     1.9780 ha         1 6O3       0.118000
@<TRIPOS>BOND
     1     1     2 1   
     2     2     3 1   
     3     2     4 1   
     4     2     5 1   
     5     5     6 1   
     6     5    22 1   
     7     5    23 1   
     8     6     7 1   
     9     6    14 2   
    10     7     8 ar  
    11     7    12 ar  
    12     8     9 ar  
    13     8    24 1   
    14     9    10 ar  
    15    10    11 ar  
    16    10    25 1   
    17    11    12 ar  
    18    12    13 1   
    19    13    14 1   
    20    14    15 1   
    21    15    16 ar  
    22    15    21 ar  
    23    16    17 ar  
    24    16    26 1   
    25    17    18 ar  
    26    17    27 1   
    27    18    19 1   
    28    18    20 ar  
    29    19    28 1   
    30    19    29 1   
    31    19    30 1   
    32    20    21 ar  
    33    20    31 1   
    34    21    32 1   
@<TRIPOS>SUBSTRUCTURE
     1 6O3         1 TEMP              0 ****  ****    0 ROOT
