@<TRIPOS>MOLECULE
6O5
   17    17     1     0     0
SMALL
No Charge or Current Charge


@<TRIPOS>ATOM
      1 CAE          2.1000     0.9600    -0.6610 cc         1 6O5      -0.233000
      2 CAC          3.3260     0.2700    -0.6250 cc         1 6O5      -0.192000
      3 CAD          3.1190    -0.8440     0.1400 cd         1 6O5       0.085900
      4 OAH          1.8220    -0.9050     0.6000 os         1 6O5      -0.239000
      5 CAJ          1.2220     0.2220     0.0840 cd         1 6O5       0.182300
      6 CAG         -0.2270     0.4830     0.3980 c3         1 6O5      -0.099700
      7 CAF         -1.1950    -0.3840    -0.4490 c3         1 6O5      -0.206400
      8 CAI         -2.6560    -0.0630    -0.0910 c          1 6O5       0.719000
      9 OAB         -3.1760    -0.6890     0.8210 o          1 6O5      -0.739000
     10 OAA         -3.2130     0.8400    -0.6970 o          1 6O5      -0.739000
     11 H1           1.9010     1.8920    -1.1800 ha         1 6O5       0.132000
     12 H2           4.2480     0.5720    -1.1130 ha         1 6O5       0.120000
     13 H3           3.7900    -1.6440     0.4250 h4         1 6O5       0.033100
     14 H4          -0.4100     0.2930     1.4630 hc         1 6O5       0.062200
     15 H5          -0.4530     1.5430     0.2310 hc         1 6O5       0.062200
     16 H6          -0.9910    -0.1230    -1.4950 hc         1 6O5       0.025700
     17 H7          -0.9600    -1.4260    -0.2010 hc         1 6O5       0.025700
@<TRIPOS>BOND
     1     1     2 1   
     2     1     5 2   
     3     1    11 1   
     4     2     3 2   
     5     2    12 1   
     6     3     4 1   
     7     3    13 1   
     8     4     5 1   
     9     5     6 1   
    10     6     7 1   
    11     6    14 1   
    12     6    15 1   
    13     7     8 1   
    14     7    16 1   
    15     7    17 1   
    16     8     9 1   
    17     8    10 1   
@<TRIPOS>SUBSTRUCTURE
     1 6O5         1 TEMP              0 ****  ****    0 ROOT
