@<TRIPOS>MOLECULE
6O5
   17    17     1     0     0
SMALL
bcc


@<TRIPOS>ATOM
      1 CAE          2.1300     0.9400    -0.8340 cc         1 6O5      -0.316300
      2 CAC          3.3400     0.1930    -0.6740 cc         1 6O5      -0.275300
      3 CAD          3.0630    -0.7690     0.2340 cd         1 6O5       0.195600
      4 OAH          1.7780    -0.6690     0.6420 os         1 6O5      -0.327800
      5 CAJ          1.2120     0.3740    -0.0110 cd         1 6O5       0.292000
      6 CAG         -0.2190     0.6640     0.2600 c3         1 6O5      -0.099700
      7 CAF         -1.1580    -0.4370    -0.2290 c3         1 6O5      -0.206400
      8 CAI         -2.6550    -0.1710     0.0150 c          1 6O5       0.929600
      9 OAB         -3.4310    -1.0820    -0.3390 o          1 6O5      -0.844300
     10 OAA         -2.9760     0.9180     0.5300 o          1 6O5      -0.844300
     11 H1           1.9670     1.7880    -1.4790 ha         1 6O5       0.150000
     12 H2           4.2830     0.3530    -1.1710 ha         1 6O5       0.138000
     13 H3           3.6510    -1.5590     0.6730 h4         1 6O5       0.033100
     14 H4          -0.3700     0.8300     1.3300 hc         1 6O5       0.062200
     15 H5          -0.4640     1.6070    -0.2320 hc         1 6O5       0.062200
     16 H6          -1.0080    -0.5920    -1.3030 hc         1 6O5       0.025700
     17 H7          -0.8950    -1.3910     0.2390 hc         1 6O5       0.025700
@<TRIPOS>BOND
     1     1     2 1   
     2     1     5 2   
     3     1    11 1   
     4     2     3 2   
     5     2    12 1   
     6     3     4 1   
     7     3    13 1   
     8     4     5 1   
     9     5     6 1   
    10     6     7 1   
    11     6    14 1   
    12     6    15 1   
    13     7     8 1   
    14     7    16 1   
    15     7    17 1   
    16     8     9 1   
    17     8    10 1   
@<TRIPOS>SUBSTRUCTURE
     1 6O5         1 TEMP              0 ****  ****    0 ROOT
