@<TRIPOS>MOLECULE
6O6
  169   178     1     0     0
SMALL
bcc


@<TRIPOS>ATOM
      1 C            1.6710    99.1010    88.2940 c6         1 6O6      -0.042700
      2 N1           4.0880    96.5280    85.1640 na         1 6O6      -0.167400
      3 C1           0.2500    99.2180    87.7290 c3         1 6O6       0.070100
      4 N           -0.1600    97.6110    85.9470 ns         1 6O6      -0.551900
      5 C2           0.2680    98.8450    86.2460 c          1 6O6       0.644100
      6 C3          -0.1950    97.0770    84.6130 c3         1 6O6       0.050700
      7 C4           0.5290    95.7350    84.5250 c3         1 6O6      -0.004200
      8 C17          3.4720    97.5100    89.0860 ca         1 6O6       0.032700
      9 C18          4.1810    96.3620    88.9280 ca         1 6O6      -0.208000
     10 C6           2.8180    96.8970    84.8150 cc         1 6O6      -0.098100
     11 C5           1.9830    95.8150    84.8640 cd         1 6O6      -0.154400
     12 C7           4.1110    95.1960    85.4500 ca         1 6O6      -0.048200
     13 C8           2.7960    94.7090    85.2740 ca         1 6O6      -0.097800
     14 C9           2.5350    93.3540    85.5130 ca         1 6O6      -0.081000
     15 C10          3.5720    92.5330    85.9120 ca         1 6O6      -0.158000
     16 C11          4.8730    93.0380    86.0750 ca         1 6O6      -0.121000
     17 C12          5.1600    94.3710    85.8500 ca         1 6O6      -0.144000
     18 C13         -1.6210    96.9720    84.0760 c          1 6O6       0.620100
     19 C16          2.1100    97.6490    88.4690 c6         1 6O6      -0.050100
     20 C15         -1.9750    98.8050    88.3930 c3         1 6O6       0.113700
     21 O2           0.6880    99.6430    85.4210 o          1 6O6      -0.609100
     22 O1          -1.9660    96.1690    83.2480 o          1 6O6      -0.533000
     23 O           -2.4160    97.8930    84.5880 os         1 6O6      -0.408900
     24 O3          -0.6160    98.4300    88.4940 os         1 6O6      -0.413600
     25 C21          1.8050    99.7990    89.6470 c6         1 6O6       0.071100
     26 O4           1.3620   101.1250    89.5690 os         1 6O6      -0.376600
     27 C22          0.7280   101.6240    90.6950 c6         1 6O6       0.355900
     28 C23          0.7660   103.1380    90.6660 c6         1 6O6      -0.134400
     29 C24         -0.0230   103.6890    91.8480 c6         1 6O6       0.154100
     30 O7          -0.1200   105.1000    91.7700 os         1 6O6      -0.379600
     31 C28          0.8980   105.8020    92.3860 c6         1 6O6       0.355900
     32 C29          0.9440   107.2130    91.8270 c6         1 6O6      -0.131400
     33 C30          1.9960   108.0120    92.5910 c6         1 6O6       0.159100
     34 O10          2.0270   109.3660    92.1760 os         1 6O6      -0.372600
     35 C34          2.8300   109.6390    91.0850 c6         1 6O6       0.345900
     36 C35          2.4230   110.9770    90.4960 c6         1 6O6      -0.140400
     37 C36          3.3610   111.4220    89.3660 c6         1 6O6       0.175800
     38 C40          3.0410   112.8580    88.9750 c3         1 6O6      -0.078100
     39 O11          3.1570   110.6500    88.1950 oh         1 6O6      -0.583800
     40 C37          4.8120   111.3080    89.8680 c6         1 6O6       0.084100
     41 O13          5.6810   111.5750    88.7950 oh         1 6O6      -0.575800
     42 C38          5.0890   109.9290    90.4860 c6         1 6O6       0.126100
     43 C39          6.4830   109.8240    91.0720 c3         1 6O6      -0.091100
     44 O12          4.1650   109.6880    91.5310 os         1 6O6      -0.445600
     45 O9           0.5530   108.6760    94.3560 oh         1 6O6      -0.566800
     46 C31          1.7340   107.9620    94.0890 c6         1 6O6       0.123100
     47 C32          1.6420   106.4890    94.5120 c6         1 6O6       0.125100
     48 C33          1.3270   106.3110    95.9830 c3         1 6O6      -0.090100
     49 O8           0.6400   105.8210    93.7690 os         1 6O6      -0.419600
     50 C25         -1.4280   103.1050    91.8680 c6         1 6O6       0.117100
     51 O6          -2.0620   103.5260    93.0490 oh         1 6O6      -0.573800
     52 C26         -1.3460   101.5700    91.8030 c6         1 6O6       0.125100
     53 C27         -2.7090   100.9150    91.7120 c3         1 6O6      -0.091100
     54 O5          -0.6020   101.1710    90.6670 os         1 6O6      -0.447600
     55 C20          3.2590    99.7720    90.0980 c          1 6O6       0.584700
     56 O14          3.7250   100.7520    90.6820 o          1 6O6      -0.584100
     57 C19          4.0240    98.5720    89.8550 ca         1 6O6      -0.366600
     58 C43          5.4540    96.1900    89.5300 ca         1 6O6       0.098000
     59 C42          6.0550    97.2500    90.2580 ca         1 6O6      -0.161000
     60 C41          5.3160    98.4600    90.4030 ca         1 6O6       0.306100
     61 O15          5.8420    99.4660    91.0690 oh         1 6O6      -0.485100
     62 C44          6.1070    94.9560    89.4040 ca         1 6O6      -0.272000
     63 C45          7.3460    94.7690    89.9720 ca         1 6O6       0.232100
     64 C58          7.9980    95.8070    90.6750 ca         1 6O6      -0.241300
     65 C59          9.3670    95.6180    91.2690 c3         1 6O6      -0.039800
     66 C60          7.3520    97.0240    90.8090 ca         1 6O6       0.232100
     67 O23          7.9360    98.0320    91.4700 oh         1 6O6      -0.467100
     68 O16          8.0350    93.6110    89.9000 os         1 6O6      -0.311900
     69 C46          7.4810    92.5050    89.2530 c6         1 6O6       0.353900
     70 C47          8.5730    91.4790    89.0440 c6         1 6O6      -0.138400
     71 C48          7.9690    90.2120    88.4470 c6         1 6O6       0.155100
     72 C49          6.8100    89.7250    89.3060 c6         1 6O6       0.116100
     73 O18          6.1970    88.6440    88.6520 oh         1 6O6      -0.573800
     74 C50          5.8130    90.8780    89.5160 c6         1 6O6       0.122100
     75 C51          4.6730    90.5080    90.4430 c3         1 6O6      -0.090100
     76 O17          6.4760    91.9960    90.0820 os         1 6O6      -0.424600
     77 O19          8.9530    89.1960    88.3760 os         1 6O6      -0.381600
     78 C52          9.6370    89.1100    87.1790 c6         1 6O6       0.355900
     79 C53         10.9660    88.4140    87.4010 c6         1 6O6      -0.138400
     80 C54         11.6680    88.2310    86.0600 c6         1 6O6       0.108100
     81 O22         12.8470    87.4630    86.1650 oh         1 6O6      -0.598800
     82 C55         10.7460    87.5180    85.0790 c6         1 6O6       0.118100
     83 O21         11.2980    87.4680    83.7870 oh         1 6O6      -0.595800
     84 C56          9.4090    88.2610    84.9900 c6         1 6O6       0.163100
     85 O20          8.8430    88.3700    86.2820 os         1 6O6      -0.427600
     86 C57          8.4010    87.5600    84.1030 c3         1 6O6      -0.080100
     87 H1           2.3420    99.5970    87.5840 hc         1 6O6       0.085700
     88 H3          -0.0480   100.2740    87.7620 h1         1 6O6       0.096700
     89 H4          -0.4700    97.0130    86.7000 hn         1 6O6       0.333500
     90 H5           0.3050    97.7980    83.9570 h1         1 6O6       0.106700
     91 H6           0.4020    95.3370    83.5170 hc         1 6O6       0.065700
     92 H7           0.0360    95.0200    85.1930 hc         1 6O6       0.065700
     93 H8           3.7760    95.5480    88.3400 ha         1 6O6       0.148000
     94 H9           2.6080    97.9250    84.5630 h4         1 6O6       0.179000
     95 H10          1.5370    92.9530    85.3870 ha         1 6O6       0.133000
     96 H11          3.3860    91.4830    86.1010 ha         1 6O6       0.131000
     97 H12          5.6670    92.3690    86.3820 ha         1 6O6       0.121000
     98 H13         -4.2410    98.7480    84.6550 h1         1 6O6       0.049700
     99 H14         -3.8050    98.1330    83.0470 h1         1 6O6       0.049700
    100 H15         -4.2870    97.0030    84.3300 h1         1 6O6       0.049700
    101 H16          6.1620    94.7600    85.9860 ha         1 6O6       0.133000
    102 H17          1.3870    97.1300    89.1060 hc         1 6O6       0.073700
    103 H18          2.1060    97.1260    87.5110 hc         1 6O6       0.073700
    104 H19         -2.5400    98.1690    89.0730 h1         1 6O6       0.040367
    105 H20         -2.1240    99.8480    88.6850 h1         1 6O6       0.040367
    106 H21         -2.3690    98.6660    87.3820 h1         1 6O6       0.040367
    107 H22          1.2290    99.2240    90.3880 h1         1 6O6       0.083700
    108 H23          1.2100   101.2600    91.6190 h2         1 6O6       0.032700
    109 H24          1.8030   103.4790    90.7090 hc         1 6O6       0.075200
    110 H25          0.3300   103.4940    89.7280 hc         1 6O6       0.075200
    111 H26          0.4760   103.3900    92.7810 h1         1 6O6       0.061700
    112 H27          1.8770   105.3160    92.2130 h2         1 6O6       0.011700
    113 H28          1.1980   107.1690    90.7650 hc         1 6O6       0.076200
    114 H29         -0.0380   107.6830    91.9190 hc         1 6O6       0.076200
    115 H30          2.9760   107.5450    92.4290 h1         1 6O6       0.044700
    116 H31          2.7370   108.8400    90.3260 h2         1 6O6       0.016700
    117 H32          2.4380   111.7210    91.2980 hc         1 6O6       0.077700
    118 H33          1.3990   110.9260    90.1170 hc         1 6O6       0.077700
    119 H34          3.2020   113.5280    89.8200 hc         1 6O6       0.048367
    120 H35          3.6660   113.1960    88.1490 hc         1 6O6       0.048367
    121 H36          1.9970   112.9490    88.6710 hc         1 6O6       0.048367
    122 H37          3.3670   109.7240    88.3530 ho         1 6O6       0.401000
    123 H38          4.9330   112.0500    90.6720 h1         1 6O6       0.047700
    124 H39          6.5290   111.8550    89.1490 ho         1 6O6       0.403000
    125 H40          4.9830   109.1540    89.7070 h1         1 6O6       0.038700
    126 H41          6.6330   108.8500    91.5390 hc         1 6O6       0.046367
    127 H42          7.2400   109.9300    90.2960 hc         1 6O6       0.046367
    128 H43          6.6540   110.5960    91.8240 hc         1 6O6       0.046367
    129 H44          0.4980   108.8450    95.3010 ho         1 6O6       0.402000
    130 H45          2.5960   108.4040    94.6090 h1         1 6O6       0.044700
    131 H46          2.6250   106.0350    94.3080 h1         1 6O6       0.030700
    132 H47          2.0710   106.8260    96.5930 hc         1 6O6       0.047367
    133 H48          0.3430   106.7070    96.2370 hc         1 6O6       0.047367
    134 H49          1.3450   105.2570    96.2590 hc         1 6O6       0.047367
    135 H50         -1.9640   103.4570    90.9730 h1         1 6O6       0.054700
    136 H51         -3.0140   103.4450    92.9380 ho         1 6O6       0.405000
    137 H52         -0.8390   101.2220    92.7190 h1         1 6O6       0.045700
    138 H53         -3.3030   101.1240    92.6010 hc         1 6O6       0.046033
    139 H54         -3.2590   101.2730    90.8400 hc         1 6O6       0.046033
    140 H55         -2.6100    99.8320    91.6350 hc         1 6O6       0.046033
    141 H56          5.1740   100.2040    91.0640 ho         1 6O6       0.486000
    142 H57          5.5950    94.1720    88.8670 ha         1 6O6       0.153000
    143 H58         10.0920    96.3230    90.8520 hc         1 6O6       0.043700
    144 H59          9.3630    95.7520    92.3550 hc         1 6O6       0.043700
    145 H60          9.7590    94.6240    91.0810 hc         1 6O6       0.043700
    146 H61          8.8010    97.7670    91.8040 ho         1 6O6       0.434000
    147 H62          7.0600    92.8000    88.2780 h2         1 6O6       0.035700
    148 H63          9.0430    91.2450    90.0040 hc         1 6O6       0.073700
    149 H64          9.3410    91.8820    88.3780 hc         1 6O6       0.073700
    150 H65          7.5740    90.4360    87.4450 h1         1 6O6       0.060700
    151 H66          7.2060    89.4310    90.2900 h1         1 6O6       0.057700
    152 H67          5.6960    88.1340    89.2950 ho         1 6O6       0.409000
    153 H68          5.3980    91.1510    88.5320 h1         1 6O6       0.047700
    154 H69          4.0000    91.3540    90.5810 hc         1 6O6       0.049367
    155 H70          4.0840    89.6930    90.0250 hc         1 6O6       0.049367
    156 H71          5.0430    90.1980    91.4220 hc         1 6O6       0.049367
    157 H72          9.8180    90.1140    86.7520 h2         1 6O6       0.014700
    158 H73         10.7960    87.4400    87.8710 hc         1 6O6       0.070700
    159 H74         11.5880    89.0100    88.0740 hc         1 6O6       0.070700
    160 H75         11.8910    89.2250    85.6420 h1         1 6O6       0.036700
    161 H76         13.5250    87.9970    86.5900 ho         1 6O6       0.411000
    162 H77         10.5470    86.5050    85.4670 h1         1 6O6       0.060700
    163 H78         12.1760    87.0760    83.8550 ho         1 6O6       0.422000
    164 H79          9.6040    89.2670    84.5840 h1         1 6O6       0.036700
    165 H80          7.4590    88.1080    84.0890 hc         1 6O6       0.050367
    166 H81          8.7640    87.4980    83.0800 hc         1 6O6       0.050367
    167 H82          8.2040    86.5460    84.4570 hc         1 6O6       0.050367
    168 H2           4.8740    97.1540    85.2190 hn         1 6O6       0.305700
    169 C14         -3.7640    97.9350    84.1170 c3         1 6O6       0.125700
@<TRIPOS>BOND
     1     1     3 1   
     2     1    19 1   
     3     1    25 1   
     4     1    87 1   
     5     2    10 1   
     6     2    12 1   
     7     2   168 1   
     8     3     5 1   
     9     3    24 1   
    10     3    88 1   
    11     4     5 1   
    12     4     6 1   
    13     4    89 1   
    14     5    21 2   
    15     6     7 1   
    16     6    18 1   
    17     6    90 1   
    18     7    11 1   
    19     7    91 1   
    20     7    92 1   
    21     8     9 ar  
    22     8    19 1   
    23     8    57 ar  
    24     9    58 ar  
    25     9    93 1   
    26    10    11 2   
    27    10    94 1   
    28    11    13 1   
    29    12    13 ar  
    30    12    17 ar  
    31    13    14 ar  
    32    14    15 ar  
    33    14    95 1   
    34    15    16 ar  
    35    15    96 1   
    36    16    17 ar  
    37    16    97 1   
    38    17   101 1   
    39    18    22 2   
    40    18    23 1   
    41    19   102 1   
    42    19   103 1   
    43    20    24 1   
    44    20   104 1   
    45    20   105 1   
    46    20   106 1   
    47    23   169 1   
    48    25    26 1   
    49    25    55 1   
    50    25   107 1   
    51    26    27 1   
    52    27    28 1   
    53    27    54 1   
    54    27   108 1   
    55    28    29 1   
    56    28   109 1   
    57    28   110 1   
    58    29    30 1   
    59    29    50 1   
    60    29   111 1   
    61    30    31 1   
    62    31    32 1   
    63    31    49 1   
    64    31   112 1   
    65    32    33 1   
    66    32   113 1   
    67    32   114 1   
    68    33    34 1   
    69    33    46 1   
    70    33   115 1   
    71    34    35 1   
    72    35    36 1   
    73    35    44 1   
    74    35   116 1   
    75    36    37 1   
    76    36   117 1   
    77    36   118 1   
    78    37    38 1   
    79    37    39 1   
    80    37    40 1   
    81    38   119 1   
    82    38   120 1   
    83    38   121 1   
    84    39   122 1   
    85    40    41 1   
    86    40    42 1   
    87    40   123 1   
    88    41   124 1   
    89    42    43 1   
    90    42    44 1   
    91    42   125 1   
    92    43   126 1   
    93    43   127 1   
    94    43   128 1   
    95    45    46 1   
    96    45   129 1   
    97    46    47 1   
    98    46   130 1   
    99    47    48 1   
   100    47    49 1   
   101    47   131 1   
   102    48   132 1   
   103    48   133 1   
   104    48   134 1   
   105    50    51 1   
   106    50    52 1   
   107    50   135 1   
   108    51   136 1   
   109    52    53 1   
   110    52    54 1   
   111    52   137 1   
   112    53   138 1   
   113    53   139 1   
   114    53   140 1   
   115    55    56 2   
   116    55    57 1   
   117    57    60 ar  
   118    58    59 ar  
   119    58    62 ar  
   120    59    60 ar  
   121    59    66 ar  
   122    60    61 1   
   123    61   141 1   
   124    62    63 ar  
   125    62   142 1   
   126    63    64 ar  
   127    63    68 1   
   128    64    65 1   
   129    64    66 ar  
   130    65   143 1   
   131    65   144 1   
   132    65   145 1   
   133    66    67 1   
   134    67   146 1   
   135    68    69 1   
   136    69    70 1   
   137    69    76 1   
   138    69   147 1   
   139    70    71 1   
   140    70   148 1   
   141    70   149 1   
   142    71    72 1   
   143    71    77 1   
   144    71   150 1   
   145    72    73 1   
   146    72    74 1   
   147    72   151 1   
   148    73   152 1   
   149    74    75 1   
   150    74    76 1   
   151    74   153 1   
   152    75   154 1   
   153    75   155 1   
   154    75   156 1   
   155    77    78 1   
   156    78    79 1   
   157    78    85 1   
   158    78   157 1   
   159    79    80 1   
   160    79   158 1   
   161    79   159 1   
   162    80    81 1   
   163    80    82 1   
   164    80   160 1   
   165    81   161 1   
   166    82    83 1   
   167    82    84 1   
   168    82   162 1   
   169    83   163 1   
   170    84    85 1   
   171    84    86 1   
   172    84   164 1   
   173    86   165 1   
   174    86   166 1   
   175    86   167 1   
   176    98   169 1   
   177    99   169 1   
   178   100   169 1   
@<TRIPOS>SUBSTRUCTURE
     1 6O6         1 TEMP              0 ****  ****    0 ROOT
