@<TRIPOS>MOLECULE
6O6
  169   178     1     0     0
SMALL
No Charge or Current Charge


@<TRIPOS>ATOM
      1 C            2.0840    99.1510    88.5270 c6         1 6O6      -0.042700
      2 N1           4.5920    96.5820    85.2540 na         1 6O6      -0.217700
      3 C1           0.7530    99.4230    87.7480 c3         1 6O6       0.093300
      4 N            0.2590    97.8520    85.9010 ns         1 6O6      -0.484900
      5 C2           0.8570    99.0450    86.2460 c          1 6O6       0.577100
      6 C3           0.2720    97.2440    84.5510 c3         1 6O6       0.050700
      7 C4           1.0150    95.8800    84.5540 c3         1 6O6      -0.004200
      8 C17          3.6480    97.3350    89.4840 ca         1 6O6       0.032700
      9 C18          4.3060    96.1210    89.2680 ca         1 6O6      -0.190000
     10 C6           3.3230    97.0440    84.8440 cc         1 6O6      -0.148100
     11 C5           2.4840    95.9340    84.9210 cd         1 6O6      -0.154400
     12 C7           4.5320    95.2320    85.5440 ca         1 6O6      -0.048200
     13 C8           3.2530    94.7910    85.3610 ca         1 6O6      -0.097800
     14 C9           2.8920    93.4520    85.5650 ca         1 6O6      -0.063000
     15 C10          3.9080    92.5520    85.9550 ca         1 6O6      -0.140000
     16 C11          5.2390    93.0060    86.1300 ca         1 6O6      -0.103000
     17 C12          5.5620    94.3660    85.9320 ca         1 6O6      -0.126000
     18 C13         -1.1850    97.1230    84.0340 c          1 6O6       0.571100
     19 C16          2.4140    97.6400    88.6340 c6         1 6O6      -0.050100
     20 C15         -1.6460    99.2630    88.1970 c3         1 6O6       0.136900
     21 O2           1.4130    99.7590    85.4220 o          1 6O6      -0.609100
     22 O1          -1.8150    96.0740    83.9740 o          1 6O6      -0.484000
     23 O           -1.6880    98.3430    83.6570 os         1 6O6      -0.432100
     24 O3          -0.3300    98.7230    88.4230 os         1 6O6      -0.460000
     25 C21          2.0610    99.7840    89.9360 c6         1 6O6       0.094300
     26 O4           1.7040   101.1950    89.8800 os         1 6O6      -0.423000
     27 C22          1.0400   101.7090    91.0440 c6         1 6O6       0.402300
     28 C23          1.0260   103.2500    90.9850 c6         1 6O6      -0.134400
     29 C24          0.2070   103.8120    92.1750 c6         1 6O6       0.177300
     30 O7           0.1000   105.2540    92.1330 os         1 6O6      -0.426000
     31 C28          1.2940   105.9830    92.4580 c6         1 6O6       0.402300
     32 C29          1.0900   107.4740    92.1210 c6         1 6O6      -0.131400
     33 C30          2.3140   108.3130    92.5900 c6         1 6O6       0.182300
     34 O10          2.1140   109.7270    92.3440 os         1 6O6      -0.419000
     35 C34          2.1900   110.1440    90.9720 c6         1 6O6       0.392300
     36 C35          1.7400   111.6120    90.8550 c6         1 6O6      -0.140400
     37 C36          1.8990   112.1390    89.4050 c6         1 6O6       0.199000
     38 C40          1.5750   113.6600    89.3530 c3         1 6O6      -0.078100
     39 O11          0.9610   111.4800    88.5530 oh         1 6O6      -0.646000
     40 C37          3.3470   111.8470    88.8730 c6         1 6O6       0.107300
     41 O13          3.4340   112.1610    87.4630 oh         1 6O6      -0.698000
     42 C38          3.7400   110.3560    89.1430 c6         1 6O6       0.149300
     43 C39          5.2230   110.0470    88.8140 c3         1 6O6      -0.091100
     44 O12          3.5570   110.0410    90.5370 os         1 6O6      -0.492000
     45 O9           1.5540   108.6060    94.9410 oh         1 6O6      -0.689000
     46 C31          2.6020   108.0500    94.1060 c6         1 6O6       0.146300
     47 C32          2.7530   106.5040    94.3000 c6         1 6O6       0.148300
     48 C33          3.0100   106.0770    95.7680 c3         1 6O6      -0.090100
     49 O8           1.5550   105.8300    93.8640 os         1 6O6      -0.466000
     50 C25         -1.2180   103.1890    92.1870 c6         1 6O6       0.140300
     51 O6          -1.9720   103.6750    93.3150 oh         1 6O6      -0.696000
     52 C26         -1.1000   101.6340    92.1750 c6         1 6O6       0.148300
     53 C27         -2.4680   100.9190    92.0420 c3         1 6O6      -0.091100
     54 O5          -0.3130   101.2190    91.0390 os         1 6O6      -0.494000
     55 C20          3.3720    99.5150    90.7320 c          1 6O6       0.584700
     56 O14          3.8100   100.3390    91.5320 o          1 6O6      -0.584100
     57 C19          4.1130    98.2150    90.4840 ca         1 6O6      -0.366600
     58 C43          5.4300    95.7610    90.0210 ca         1 6O6       0.098000
     59 C42          5.9400    96.6210    91.0160 ca         1 6O6      -0.161000
     60 C41          5.2640    97.8590    91.2370 ca         1 6O6       0.306100
     61 O15          5.6930    98.7370    92.1840 oh         1 6O6      -0.524100
     62 C44          6.0250    94.5220    89.7600 ca         1 6O6      -0.254000
     63 C45          7.1500    94.0940    90.4840 ca         1 6O6       0.232100
     64 C58          7.7010    94.9370    91.4720 ca         1 6O6      -0.241300
     65 C59          8.9440    94.4950    92.2660 c3         1 6O6      -0.039800
     66 C60          7.0960    96.1900    91.7360 ca         1 6O6       0.232100
     67 O23          7.6660    96.9610    92.7080 oh         1 6O6      -0.506100
     68 O16          7.7500    92.8700    90.2470 os         1 6O6      -0.335100
     69 C46          7.1520    91.8930    89.3850 c6         1 6O6       0.400300
     70 C47          8.1210    90.7080    89.1890 c6         1 6O6      -0.138400
     71 C48          7.4410    89.6220    88.3170 c6         1 6O6       0.178300
     72 C49          6.0810    89.2010    88.9460 c6         1 6O6       0.139300
     73 O18          5.4240    88.2220    88.1160 oh         1 6O6      -0.696000
     74 C50          5.2050    90.4700    89.1740 c6         1 6O6       0.145300
     75 C51          3.8800    90.1750    89.9190 c3         1 6O6      -0.090100
     76 O17          5.9320    91.4160    89.9860 os         1 6O6      -0.471000
     77 O19          8.2750    88.4520    88.1490 os         1 6O6      -0.428000
     78 C52          9.4060    88.6090    87.2800 c6         1 6O6       0.402300
     79 C53         10.3090    87.3600    87.3820 c6         1 6O6      -0.138400
     80 C54         11.4770    87.4700    86.3760 c6         1 6O6       0.131300
     81 O22         12.2820    86.2820    86.4070 oh         1 6O6      -0.661000
     82 C55         10.9300    87.7130    84.9380 c6         1 6O6       0.141300
     83 O21         12.0290    87.8780    84.0220 oh         1 6O6      -0.718000
     84 C56          9.9730    88.9480    84.9540 c6         1 6O6       0.186300
     85 O20          8.9290    88.7400    85.9300 os         1 6O6      -0.474000
     86 C57          9.2680    89.1890    83.5970 c3         1 6O6      -0.080100
     87 H1           2.8860    99.6400    87.9550 hc         1 6O6       0.085700
     88 H3           0.5730   100.5060    87.7650 h1         1 6O6       0.096700
     89 H4          -0.1900    97.3530    86.6620 hn         1 6O6       0.333500
     90 H5           0.7820    97.9160    83.8500 h1         1 6O6       0.106700
     91 H6           0.9210    95.4320    83.5580 hc         1 6O6       0.065700
     92 H7           0.4930    95.2020    85.2410 hc         1 6O6       0.065700
     93 H8           3.9320    95.4430    88.5050 ha         1 6O6       0.130000
     94 H9           3.1390    98.0690    84.5360 h4         1 6O6       0.229000
     95 H10          1.8710    93.1110    85.4120 ha         1 6O6       0.115000
     96 H11          3.6690    91.5020    86.1080 ha         1 6O6       0.113000
     97 H12          6.0170    92.3000    86.4050 ha         1 6O6       0.103000
     98 H13         -3.3090    99.4280    82.9010 h1         1 6O6       0.049700
     99 H14         -3.1540    97.7760    82.2650 h1         1 6O6       0.049700
    100 H15         -3.7480    98.0430    83.9230 h1         1 6O6       0.049700
    101 H16          6.5810    94.7240    86.0620 ha         1 6O6       0.115000
    102 H17          1.5620    97.0970    89.0650 hc         1 6O6       0.073700
    103 H18          2.5560    97.2250    87.6280 hc         1 6O6       0.073700
    104 H19         -2.3970    98.6710    88.7340 h1         1 6O6       0.040367
    105 H20         -1.7080   100.2980    88.5590 h1         1 6O6       0.040367
    106 H21         -1.9010    99.2530    87.1290 h1         1 6O6       0.040367
    107 H22          1.2820    99.2530    90.5010 h1         1 6O6       0.083700
    108 H23          1.5550   101.3770    91.9570 h2         1 6O6       0.032700
    109 H24          2.0610   103.6120    91.0170 hc         1 6O6       0.075200
    110 H25          0.5920   103.5820    90.0330 hc         1 6O6       0.075200
    111 H26          0.7070   103.5230    93.1130 h1         1 6O6       0.061700
    112 H27          2.1430   105.5960    91.8780 h2         1 6O6       0.011700
    113 H28          0.9430   107.5700    91.0390 hc         1 6O6       0.076200
    114 H29          0.1750   107.8390    92.6050 hc         1 6O6       0.076200
    115 H30          3.2000   107.9850    92.0260 h1         1 6O6       0.044700
    116 H31          1.5470   109.5100    90.3450 h2         1 6O6       0.016700
    117 H32          2.3350   112.2240    91.5450 hc         1 6O6       0.077700
    118 H33          0.6940   111.7000    91.1780 hc         1 6O6       0.077700
    119 H34          2.2780   114.2360    89.9670 hc         1 6O6       0.048367
    120 H35          1.6320   114.0530    88.3310 hc         1 6O6       0.048367
    121 H36          0.5650   113.8650    89.7280 hc         1 6O6       0.048367
    122 H37          1.3790   111.5370    87.6640 ho         1 6O6       0.440000
    123 H38          4.0450   112.4850    89.4370 h1         1 6O6       0.047700
    124 H39          4.3880   112.2760    87.2460 ho         1 6O6       0.502000
    125 H40          3.1050   109.6860    88.5440 h1         1 6O6       0.038700
    126 H41          5.4720   109.0110    89.0740 hc         1 6O6       0.046367
    127 H42          5.4290   110.1730    87.7450 hc         1 6O6       0.046367
    128 H43          5.9010   110.7060    89.3690 hc         1 6O6       0.046367
    129 H44          1.7920   108.4070    95.8730 ho         1 6O6       0.501000
    130 H45          3.5630   108.5230    94.3560 h1         1 6O6       0.044700
    131 H46          3.5980   106.1470    93.6940 h1         1 6O6       0.030700
    132 H47          3.8910   106.5840    96.1770 hc         1 6O6       0.047367
    133 H48          2.1550   106.3050    96.4160 hc         1 6O6       0.047367
    134 H49          3.1930   104.9980    95.8300 hc         1 6O6       0.047367
    135 H50         -1.7210   103.4910    91.2560 h1         1 6O6       0.054700
    136 H51         -1.7480   104.6330    93.3850 ho         1 6O6       0.504000
    137 H52         -0.6070   101.2870    93.0960 h1         1 6O6       0.045700
    138 H53         -3.1130   101.1360    92.9010 hc         1 6O6       0.046033
    139 H54         -2.9970   101.2370    91.1360 hc         1 6O6       0.046033
    140 H55         -2.3380    99.8310    91.9930 hc         1 6O6       0.046033
    141 H56          5.0820    99.5150    92.1210 ho         1 6O6       0.525000
    142 H57          5.5870    93.8970    88.9890 ha         1 6O6       0.135000
    143 H58          9.7710    95.2040    92.1350 hc         1 6O6       0.043700
    144 H59          8.7230    94.4230    93.3380 hc         1 6O6       0.043700
    145 H60          9.3300    93.5150    91.9640 hc         1 6O6       0.043700
    146 H61          8.4300    96.4720    93.0680 ho         1 6O6       0.473000
    147 H62          6.9420    92.3480    88.4070 h2         1 6O6       0.035700
    148 H63          8.4030    90.2920    90.1650 hc         1 6O6       0.073700
    149 H64          9.0380    91.0750    88.7120 hc         1 6O6       0.073700
    150 H65          7.2320    90.0490    87.3240 h1         1 6O6       0.060700
    151 H66          6.2920    88.7600    89.9320 h1         1 6O6       0.057700
    152 H67          6.1380    87.6130    87.8130 ho         1 6O6       0.508000
    153 H68          4.9660    90.9390    88.2080 h1         1 6O6       0.047700
    154 H69          3.3150    91.0980    90.0940 hc         1 6O6       0.049367
    155 H70          3.2400    89.5020    89.3370 hc         1 6O6       0.049367
    156 H71          4.0670    89.7030    90.8910 hc         1 6O6       0.049367
    157 H72          9.9830    89.5010    87.5620 h2         1 6O6       0.014700
    158 H73          9.7140    86.4590    87.1820 hc         1 6O6       0.070700
    159 H74         10.6950    87.2720    88.4060 hc         1 6O6       0.070700
    160 H75         12.0900    88.3380    86.6620 h1         1 6O6       0.036700
    161 H76         12.6170    86.1840    87.3270 ho         1 6O6       0.450000
    162 H77         10.3350    86.8330    84.6470 h1         1 6O6       0.060700
    163 H78         12.6930    87.2050    84.3070 ho         1 6O6       0.521000
    164 H79         10.5350    89.8540    85.2250 h1         1 6O6       0.036700
    165 H80          8.5780    90.0380    83.6600 hc         1 6O6       0.050367
    166 H81          9.9950    89.4120    82.8080 hc         1 6O6       0.050367
    167 H82          8.6930    88.3080    83.2850 hc         1 6O6       0.050367
    168 H2           5.4340    97.1480    85.3090 hn         1 6O6       0.356000
    169 C14         -3.0400    98.3970    83.1630 c3         1 6O6       0.148900
@<TRIPOS>BOND
     1     1     3 1   
     2     1    19 1   
     3     1    25 1   
     4     1    87 1   
     5     2    10 1   
     6     2    12 1   
     7     2   168 1   
     8     3     5 1   
     9     3    24 1   
    10     3    88 1   
    11     4     5 1   
    12     4     6 1   
    13     4    89 1   
    14     5    21 2   
    15     6     7 1   
    16     6    18 1   
    17     6    90 1   
    18     7    11 1   
    19     7    91 1   
    20     7    92 1   
    21     8     9 ar  
    22     8    19 1   
    23     8    57 ar  
    24     9    58 ar  
    25     9    93 1   
    26    10    11 2   
    27    10    94 1   
    28    11    13 1   
    29    12    13 ar  
    30    12    17 ar  
    31    13    14 ar  
    32    14    15 ar  
    33    14    95 1   
    34    15    16 ar  
    35    15    96 1   
    36    16    17 ar  
    37    16    97 1   
    38    17   101 1   
    39    18    22 2   
    40    18    23 1   
    41    19   102 1   
    42    19   103 1   
    43    20    24 1   
    44    20   104 1   
    45    20   105 1   
    46    20   106 1   
    47    23   169 1   
    48    25    26 1   
    49    25    55 1   
    50    25   107 1   
    51    26    27 1   
    52    27    28 1   
    53    27    54 1   
    54    27   108 1   
    55    28    29 1   
    56    28   109 1   
    57    28   110 1   
    58    29    30 1   
    59    29    50 1   
    60    29   111 1   
    61    30    31 1   
    62    31    32 1   
    63    31    49 1   
    64    31   112 1   
    65    32    33 1   
    66    32   113 1   
    67    32   114 1   
    68    33    34 1   
    69    33    46 1   
    70    33   115 1   
    71    34    35 1   
    72    35    36 1   
    73    35    44 1   
    74    35   116 1   
    75    36    37 1   
    76    36   117 1   
    77    36   118 1   
    78    37    38 1   
    79    37    39 1   
    80    37    40 1   
    81    38   119 1   
    82    38   120 1   
    83    38   121 1   
    84    39   122 1   
    85    40    41 1   
    86    40    42 1   
    87    40   123 1   
    88    41   124 1   
    89    42    43 1   
    90    42    44 1   
    91    42   125 1   
    92    43   126 1   
    93    43   127 1   
    94    43   128 1   
    95    45    46 1   
    96    45   129 1   
    97    46    47 1   
    98    46   130 1   
    99    47    48 1   
   100    47    49 1   
   101    47   131 1   
   102    48   132 1   
   103    48   133 1   
   104    48   134 1   
   105    50    51 1   
   106    50    52 1   
   107    50   135 1   
   108    51   136 1   
   109    52    53 1   
   110    52    54 1   
   111    52   137 1   
   112    53   138 1   
   113    53   139 1   
   114    53   140 1   
   115    55    56 2   
   116    55    57 1   
   117    57    60 ar  
   118    58    59 ar  
   119    58    62 ar  
   120    59    60 ar  
   121    59    66 ar  
   122    60    61 1   
   123    61   141 1   
   124    62    63 ar  
   125    62   142 1   
   126    63    64 ar  
   127    63    68 1   
   128    64    65 1   
   129    64    66 ar  
   130    65   143 1   
   131    65   144 1   
   132    65   145 1   
   133    66    67 1   
   134    67   146 1   
   135    68    69 1   
   136    69    70 1   
   137    69    76 1   
   138    69   147 1   
   139    70    71 1   
   140    70   148 1   
   141    70   149 1   
   142    71    72 1   
   143    71    77 1   
   144    71   150 1   
   145    72    73 1   
   146    72    74 1   
   147    72   151 1   
   148    73   152 1   
   149    74    75 1   
   150    74    76 1   
   151    74   153 1   
   152    75   154 1   
   153    75   155 1   
   154    75   156 1   
   155    77    78 1   
   156    78    79 1   
   157    78    85 1   
   158    78   157 1   
   159    79    80 1   
   160    79   158 1   
   161    79   159 1   
   162    80    81 1   
   163    80    82 1   
   164    80   160 1   
   165    81   161 1   
   166    82    83 1   
   167    82    84 1   
   168    82   162 1   
   169    83   163 1   
   170    84    85 1   
   171    84    86 1   
   172    84   164 1   
   173    86   165 1   
   174    86   166 1   
   175    86   167 1   
   176    98   169 1   
   177    99   169 1   
   178   100   169 1   
@<TRIPOS>SUBSTRUCTURE
     1 6O6         1 TEMP              0 ****  ****    0 ROOT
