@<TRIPOS>MOLECULE
6O7
  165   173     1     0     0
SMALL
abcg2


@<TRIPOS>ATOM
      1 C            0.5950     4.0000     0.1540 c6         1 6O7      -0.050700
      2 N           -1.0390     6.3830    -0.8260 ns         1 6O7      -0.504900
      3 O14          1.9480     2.3080     3.0680 o          1 6O7      -0.599100
      4 C20          1.2350     2.4660     2.0720 c          1 6O7       0.621700
      5 C19          0.0050     1.7320     1.8770 ca         1 6O7      -0.307600
      6 C41         -0.3980     0.8150     2.8500 ca         1 6O7       0.273100
      7 O15          0.3610     0.5940     3.9200 oh         1 6O7      -0.601100
      8 C42         -1.6150     0.0990     2.7310 ca         1 6O7      -0.201000
      9 C60         -2.0560    -0.8690     3.6870 ca         1 6O7       0.228100
     10 O23         -1.3340    -1.1570     4.7780 oh         1 6O7      -0.539100
     11 C58         -3.2450    -1.5500     3.5140 ca         1 6O7      -0.178300
     12 C59         -3.7180    -2.5880     4.4900 c3         1 6O7      -0.019800
     13 C45         -4.0280    -1.2550     2.3740 ca         1 6O7       0.219100
     14 O16         -5.1600    -1.9850     2.2920 os         1 6O7      -0.332100
     15 C46         -5.9690    -1.9220     1.1570 c6         1 6O7       0.402300
     16 O17         -6.6990    -0.7320     1.2260 os         1 6O7      -0.472000
     17 C50         -7.5650    -0.5520     0.1170 c6         1 6O7       0.147300
     18 C51         -8.2000     0.8160     0.2530 c3         1 6O7      -0.091100
     19 C49         -8.6040    -1.6850     0.0700 c6         1 6O7       0.138300
     20 O18         -9.4120    -1.5770    -1.0740 oh         1 6O7      -0.698000
     21 C48         -7.8870    -3.0250     0.0250 c6         1 6O7       0.179300
     22 O19         -8.8520    -4.0560     0.1200 os         1 6O7      -0.430000
     23 C52         -8.5560    -5.2230    -0.5580 c6         1 6O7       0.403300
     24 O20         -8.8240    -5.0130    -1.9230 os         1 6O7      -0.474000
     25 C56         -8.5210    -6.1390    -2.7220 c6         1 6O7       0.146300
     26 C57         -8.7160    -5.7390    -4.1700 c3         1 6O7      -0.090100
     27 C55         -9.4060    -7.3280    -2.3110 c6         1 6O7       0.142300
     28 O21         -9.0720    -8.4880    -3.0340 oh         1 6O7      -0.704000
     29 C54         -9.2130    -7.6190    -0.8320 c6         1 6O7       0.178300
     30 O22        -10.1120    -8.6340    -0.4560 oh         1 6O7      -0.640000
     31 C53         -9.4230    -6.3440    -0.0190 c6         1 6O7      -0.148400
     32 C47         -6.8940    -3.1230     1.1770 c6         1 6O7      -0.139400
     33 C44         -3.6500    -0.3100     1.4460 ca         1 6O7      -0.252000
     34 C43         -2.4320     0.3680     1.6040 ca         1 6O7       0.099000
     35 C18         -2.0170     1.3270     0.6420 ca         1 6O7      -0.170000
     36 C17         -0.8320     1.9860     0.7540 ca         1 6O7       0.047700
     37 C16         -0.3680     2.9180    -0.3250 c6         1 6O7      -0.038100
     38 C21          1.7270     3.3720     0.9550 c6         1 6O7       0.101300
     39 C1          -0.0410     5.1220     0.9880 c3         1 6O7       0.099300
     40 O3          -0.3510     4.6300     2.2520 os         1 6O7      -0.426000
     41 C15         -0.4240     5.6110     3.2620 c3         1 6O7       0.141900
     42 C2          -1.2840     5.6890     0.2990 c          1 6O7       0.572100
     43 O2          -2.4100     5.5110     0.7240 o          1 6O7      -0.570100
     44 C3          -2.1070     6.9760    -1.5840 c3         1 6O7       0.065700
     45 C13         -3.0760     5.9050    -2.0650 c          1 6O7       0.588100
     46 O1          -2.7510     4.7960    -2.4010 o          1 6O7      -0.482000
     47 O           -4.3080     6.3750    -2.1330 os         1 6O7      -0.436100
     48 C14         -5.3190     5.5040    -2.6460 c3         1 6O7       0.151900
     49 C4          -1.5380     7.7100    -2.8090 c3         1 6O7      -0.044100
     50 C5          -0.6010     8.8180    -2.4110 ca         1 6O7      -0.091300
     51 C10         -1.0990    10.0020    -1.8700 ca         1 6O7      -0.108000
     52 C9          -0.2390    11.0130    -1.4680 ca         1 6O7      -0.106500
     53 C8           1.1360    10.8540    -1.6010 ca         1 6O7      -0.105000
     54 C7           1.6420     9.6810    -2.1420 ca         1 6O7      -0.106500
     55 C6           0.7760     8.6710    -2.5460 ca         1 6O7      -0.108000
     56 O4           2.4790     2.5110     0.1130 os         1 6O7      -0.435000
     57 C22          3.8520     2.7020     0.1220 c6         1 6O7       0.395300
     58 O5           4.1270     3.8280    -0.6700 os         1 6O7      -0.493000
     59 C26          5.5060     4.1450    -0.7180 c6         1 6O7       0.146300
     60 C27          5.6510     5.4290    -1.5080 c3         1 6O7      -0.091100
     61 C25          6.3010     2.9790    -1.3350 c6         1 6O7       0.143300
     62 O6           7.6810     3.2360    -1.2990 oh         1 6O7      -0.694000
     63 C24          6.0290     1.7110    -0.5440 c6         1 6O7       0.177300
     64 C23          4.5260     1.4710    -0.4480 c6         1 6O7      -0.139400
     65 O7           6.6710     0.6260    -1.1900 os         1 6O7      -0.422000
     66 C28          6.9660    -0.4510    -0.3770 c6         1 6O7       0.400300
     67 O8           8.1560    -0.1670     0.3150 os         1 6O7      -0.467000
     68 C32          8.5160    -1.1860     1.2300 c6         1 6O7       0.147300
     69 C33          9.7210    -0.7070     2.0130 c3         1 6O7      -0.089100
     70 C31          8.7630    -2.5110     0.4960 c6         1 6O7       0.127300
     71 O9           9.8520    -2.4370    -0.3910 oh         1 6O7      -0.688000
     72 C30          7.5170    -2.8580    -0.3140 c6         1 6O7       0.190300
     73 C29          7.1200    -1.7020    -1.2230 c6         1 6O7      -0.112400
     74 O10          7.7080    -4.0200    -1.0980 os         1 6O7      -0.426000
     75 C34          7.0810    -5.1650    -0.6460 c6         1 6O7       0.400300
     76 O12          7.7690    -5.6280     0.4920 os         1 6O7      -0.496000
     77 C38          7.1750    -6.7770     1.0680 c6         1 6O7       0.151300
     78 C39          7.9360    -7.0930     2.3400 c3         1 6O7      -0.093100
     79 C37          7.2110    -7.9310     0.0550 c6         1 6O7       0.155300
     80 O13          6.5880    -9.0820     0.5690 oh         1 6O7      -0.697000
     81 C36          6.5220    -7.5410    -1.2580 c6         1 6O7       0.188000
     82 C40          6.7080    -8.6170    -2.3220 c3         1 6O7      -0.115100
     83 O11          5.1460    -7.3790    -0.9540 oh         1 6O7      -0.647000
     84 C35          7.1170    -6.2130    -1.7410 c6         1 6O7      -0.137400
     85 H1           1.0450     4.4700    -0.7250 hc         1 6O7       0.073700
     86 H2          -0.0890     6.5440    -1.1210 hn         1 6O7       0.328500
     87 H3           1.1620     1.1960     3.8560 ho         1 6O7       0.542000
     88 H4          -0.5270    -0.6170     4.7960 ho         1 6O7       0.502000
     89 H5          -4.6870    -2.3240     4.9160 hc         1 6O7       0.042700
     90 H6          -3.8370    -3.5600     4.0090 hc         1 6O7       0.042700
     91 H7          -3.0220    -2.7130     5.3140 hc         1 6O7       0.042700
     92 H8          -5.3510    -1.9380     0.2440 h2         1 6O7       0.034700
     93 H9          -6.9820    -0.5880    -0.8180 h1         1 6O7       0.044700
     94 H10         -7.4380     1.5940     0.2880 hc         1 6O7       0.048700
     95 H11         -8.8440     1.0300    -0.5990 hc         1 6O7       0.048700
     96 H12         -8.8030     0.8810     1.1610 hc         1 6O7       0.048700
     97 H13         -9.2040    -1.6410     0.9920 h1         1 6O7       0.057700
     98 H14        -10.0880    -0.9130    -0.9120 ho         1 6O7       0.506000
     99 H15         -7.3480    -3.0880    -0.9300 h1         1 6O7       0.062700
    100 H16         -7.4900    -5.4940    -0.4410 h2         1 6O7       0.017700
    101 H17         -7.4680    -6.4310    -2.5710 h1         1 6O7       0.039700
    102 H18         -9.7580    -5.4820    -4.3710 hc         1 6O7       0.047367
    103 H19         -8.0950    -4.8800    -4.4190 hc         1 6O7       0.047367
    104 H20         -8.4280    -6.5470    -4.8420 hc         1 6O7       0.047367
    105 H21        -10.4570    -7.0430    -2.4750 h1         1 6O7       0.057700
    106 H22         -9.4180    -8.4050    -3.9270 ho         1 6O7       0.506000
    107 H23         -8.1710    -7.9520    -0.6920 h1         1 6O7       0.038700
    108 H24         -9.9490    -8.8540     0.4660 ho         1 6O7       0.444000
    109 H25         -9.1750    -6.5270     1.0300 hc         1 6O7       0.070200
    110 H26        -10.4750    -6.0450    -0.0690 hc         1 6O7       0.070200
    111 H27         -6.3050    -4.0400     1.0980 hc         1 6O7       0.074200
    112 H28         -7.4340    -3.1470     2.1280 hc         1 6O7       0.074200
    113 H29         -4.2650    -0.0630     0.5930 ha         1 6O7       0.130000
    114 H30         -2.6670     1.5180    -0.2030 ha         1 6O7       0.124000
    115 H31         -1.2270     3.3530    -0.8370 hc         1 6O7       0.077200
    116 H32          0.1480     2.3250    -1.0850 hc         1 6O7       0.077200
    117 H33          2.3610     4.1510     1.3930 h1         1 6O7       0.070700
    118 H34          0.7060     5.9290     1.0640 h1         1 6O7       0.041700
    119 H35          0.4970     6.2010     3.3140 h1         1 6O7       0.037700
    120 H36         -1.2650     6.2950     3.1190 h1         1 6O7       0.037700
    121 H37         -0.5570     5.0930     4.2100 h1         1 6O7       0.037700
    122 H38         -2.6540     7.6940    -0.9660 h1         1 6O7       0.087700
    123 H39         -6.2370     6.0840    -2.6530 h1         1 6O7       0.050033
    124 H40         -5.0870     5.1800    -3.6600 h1         1 6O7       0.050033
    125 H41         -5.4460     4.6310    -2.0080 h1         1 6O7       0.050033
    126 H42         -1.0230     6.9920    -3.4520 hc         1 6O7       0.068200
    127 H43         -2.3740     8.1140    -3.3830 hc         1 6O7       0.068200
    128 H44         -2.1700    10.1370    -1.7660 ha         1 6O7       0.114000
    129 H45         -0.6410    11.9280    -1.0530 ha         1 6O7       0.116000
    130 H46          1.8080    11.6430    -1.2870 ha         1 6O7       0.116000
    131 H47          2.7100     9.5490    -2.2540 ha         1 6O7       0.116000
    132 H48          1.1810     7.7630    -2.9800 ha         1 6O7       0.114000
    133 H49          4.2150     2.8820     1.1490 h2         1 6O7       0.035700
    134 H50          5.8860     4.3080     0.3040 h1         1 6O7       0.045700
    135 H51          5.0570     6.2260    -1.0610 hc         1 6O7       0.046033
    136 H52          6.6870     5.7680    -1.5160 hc         1 6O7       0.046033
    137 H53          5.3270     5.2950    -2.5420 hc         1 6O7       0.046033
    138 H54          5.9460     2.8310    -2.3670 h1         1 6O7       0.055700
    139 H55          7.8950     3.8590    -2.0000 ho         1 6O7       0.504000
    140 H56          6.4380     1.8510     0.4670 h1         1 6O7       0.061700
    141 H57          4.3160     0.6120     0.1940 hc         1 6O7       0.073700
    142 H58          4.1200     1.2590    -1.4420 hc         1 6O7       0.073700
    143 H59          6.1610    -0.6220     0.3630 h2         1 6O7       0.007700
    144 H60          7.6890    -1.3590     1.9380 h1         1 6O7       0.028700
    145 H61          9.4890     0.2100     2.5540 hc         1 6O7       0.046700
    146 H62         10.0180    -1.4580     2.7450 hc         1 6O7       0.046700
    147 H63         10.5750    -0.5050     1.3640 hc         1 6O7       0.046700
    148 H64          8.9140    -3.2890     1.2560 h1         1 6O7       0.050700
    149 H65         10.6660    -2.4380     0.1200 ho         1 6O7       0.499000
    150 H66          6.7030    -3.0190     0.4070 h1         1 6O7       0.037700
    151 H67          6.1720    -1.9300    -1.7160 hc         1 6O7       0.078200
    152 H68          7.8770    -1.5380    -1.9950 hc         1 6O7       0.078200
    153 H69          6.0360    -4.9460    -0.3650 h2         1 6O7       0.028700
    154 H70          6.1260    -6.5660     1.3260 h1         1 6O7       0.061700
    155 H71          7.9150    -6.2400     3.0190 hc         1 6O7       0.044367
    156 H72          7.4860    -7.9340     2.8650 hc         1 6O7       0.044367
    157 H73          8.9790    -7.3380     2.1310 hc         1 6O7       0.044367
    158 H74          8.2670    -8.1270    -0.1840 h1         1 6O7       0.041700
    159 H75          7.1900    -9.5050     1.1870 ho         1 6O7       0.500000
    160 H76          6.2370    -8.3080    -3.2590 hc         1 6O7       0.047033
    161 H77          7.7640    -8.7920    -2.5310 hc         1 6O7       0.047033
    162 H78          6.2610    -9.5600    -2.0130 hc         1 6O7       0.047033
    163 H79          4.6910    -7.1060    -1.7580 ho         1 6O7       0.440000
    164 H80          6.5610    -5.8640    -2.6160 hc         1 6O7       0.069200
    165 H81          8.1540    -6.3620    -2.0580 hc         1 6O7       0.069200
@<TRIPOS>BOND
     1     1    37 1   
     2     1    38 1   
     3     1    39 1   
     4     1    85 1   
     5     2    42 1   
     6     2    44 1   
     7     2    86 1   
     8     3     4 2   
     9     4     5 1   
    10     4    38 1   
    11     5     6 ar  
    12     5    36 ar  
    13     6     7 1   
    14     6     8 ar  
    15     7    87 1   
    16     8     9 ar  
    17     8    34 ar  
    18     9    10 1   
    19     9    11 ar  
    20    10    88 1   
    21    11    12 1   
    22    11    13 ar  
    23    12    89 1   
    24    12    90 1   
    25    12    91 1   
    26    13    14 1   
    27    13    33 ar  
    28    14    15 1   
    29    15    16 1   
    30    15    32 1   
    31    15    92 1   
    32    16    17 1   
    33    17    18 1   
    34    17    19 1   
    35    17    93 1   
    36    18    94 1   
    37    18    95 1   
    38    18    96 1   
    39    19    20 1   
    40    19    21 1   
    41    19    97 1   
    42    20    98 1   
    43    21    22 1   
    44    21    32 1   
    45    21    99 1   
    46    22    23 1   
    47    23    24 1   
    48    23    31 1   
    49    23   100 1   
    50    24    25 1   
    51    25    26 1   
    52    25    27 1   
    53    25   101 1   
    54    26   102 1   
    55    26   103 1   
    56    26   104 1   
    57    27    28 1   
    58    27    29 1   
    59    27   105 1   
    60    28   106 1   
    61    29    30 1   
    62    29    31 1   
    63    29   107 1   
    64    30   108 1   
    65    31   109 1   
    66    31   110 1   
    67    32   111 1   
    68    32   112 1   
    69    33    34 ar  
    70    33   113 1   
    71    34    35 ar  
    72    35    36 ar  
    73    35   114 1   
    74    36    37 1   
    75    37   115 1   
    76    37   116 1   
    77    38    56 1   
    78    38   117 1   
    79    39    40 1   
    80    39    42 1   
    81    39   118 1   
    82    40    41 1   
    83    41   119 1   
    84    41   120 1   
    85    41   121 1   
    86    42    43 2   
    87    44    45 1   
    88    44    49 1   
    89    44   122 1   
    90    45    46 2   
    91    45    47 1   
    92    47    48 1   
    93    48   123 1   
    94    48   124 1   
    95    48   125 1   
    96    49    50 1   
    97    49   126 1   
    98    49   127 1   
    99    50    51 ar  
   100    50    55 ar  
   101    51    52 ar  
   102    51   128 1   
   103    52    53 ar  
   104    52   129 1   
   105    53    54 ar  
   106    53   130 1   
   107    54    55 ar  
   108    54   131 1   
   109    55   132 1   
   110    56    57 1   
   111    57    58 1   
   112    57    64 1   
   113    57   133 1   
   114    58    59 1   
   115    59    60 1   
   116    59    61 1   
   117    59   134 1   
   118    60   135 1   
   119    60   136 1   
   120    60   137 1   
   121    61    62 1   
   122    61    63 1   
   123    61   138 1   
   124    62   139 1   
   125    63    64 1   
   126    63    65 1   
   127    63   140 1   
   128    64   141 1   
   129    64   142 1   
   130    65    66 1   
   131    66    67 1   
   132    66    73 1   
   133    66   143 1   
   134    67    68 1   
   135    68    69 1   
   136    68    70 1   
   137    68   144 1   
   138    69   145 1   
   139    69   146 1   
   140    69   147 1   
   141    70    71 1   
   142    70    72 1   
   143    70   148 1   
   144    71   149 1   
   145    72    73 1   
   146    72    74 1   
   147    72   150 1   
   148    73   151 1   
   149    73   152 1   
   150    74    75 1   
   151    75    76 1   
   152    75    84 1   
   153    75   153 1   
   154    76    77 1   
   155    77    78 1   
   156    77    79 1   
   157    77   154 1   
   158    78   155 1   
   159    78   156 1   
   160    78   157 1   
   161    79    80 1   
   162    79    81 1   
   163    79   158 1   
   164    80   159 1   
   165    81    82 1   
   166    81    83 1   
   167    81    84 1   
   168    82   160 1   
   169    82   161 1   
   170    82   162 1   
   171    83   163 1   
   172    84   164 1   
   173    84   165 1   
@<TRIPOS>SUBSTRUCTURE
     1 6O7         1 TEMP              0 ****  ****    0 ROOT
