@<TRIPOS>MOLECULE
6O7
  165   173     1     0     0
SMALL
No Charge or Current Charge


@<TRIPOS>ATOM
      1 C            0.5880     3.2510    -0.5780 c6         1 6O7      -0.050700
      2 N           -0.7780     5.6050    -2.4410 ns         1 6O7      -0.504900
      3 O14          1.9150     2.0650     2.7260 o          1 6O7      -0.599100
      4 C20          1.1770     2.2240     1.7550 c          1 6O7       0.621700
      5 C19         -0.2210     1.6390     1.7740 ca         1 6O7      -0.307600
      6 C41         -0.8120     1.1770     2.9740 ca         1 6O7       0.273100
      7 O15         -0.0880     1.2490     4.1290 oh         1 6O7      -0.601100
      8 C42         -2.1300     0.6410     2.9840 ca         1 6O7      -0.201000
      9 C60         -2.7750     0.1710     4.1590 ca         1 6O7       0.228100
     10 O23         -2.1270     0.2130     5.3560 oh         1 6O7      -0.539100
     11 C58         -4.0870    -0.3520     4.1180 ca         1 6O7      -0.178300
     12 C59         -4.7590    -0.8540     5.4050 c3         1 6O7      -0.019800
     13 C45         -4.7670    -0.4230     2.8840 ca         1 6O7       0.219100
     14 O16         -6.0360    -0.9740     2.8620 os         1 6O7      -0.332100
     15 C46         -6.8350    -0.9960     1.6690 c6         1 6O7       0.402300
     16 O17         -7.2160     0.3540     1.3320 os         1 6O7      -0.472000
     17 C50         -7.9890     0.4640     0.1170 c6         1 6O7       0.147300
     18 C51         -8.1940     1.9790    -0.1380 c3         1 6O7      -0.091100
     19 C49         -9.3290    -0.3170     0.2810 c6         1 6O7       0.138300
     20 O18        -10.1440    -0.2680    -0.9090 oh         1 6O7      -0.698000
     21 C48         -9.0190    -1.7930     0.6680 c6         1 6O7       0.179300
     22 O19        -10.2610    -2.5070     0.8730 os         1 6O7      -0.430000
     23 C52        -10.1640    -3.9400     0.9000 c6         1 6O7       0.403300
     24 O20         -9.8710    -4.4010    -0.4320 os         1 6O7      -0.474000
     25 C56         -9.7070    -5.8330    -0.5380 c6         1 6O7       0.146300
     26 C57         -9.2810    -6.1220    -2.0010 c3         1 6O7      -0.090100
     27 C55        -11.0360    -6.5460    -0.1350 c6         1 6O7       0.142300
     28 O21        -10.9140    -7.9830    -0.1700 oh         1 6O7      -0.704000
     29 C54        -11.4580    -6.0760     1.2920 c6         1 6O7       0.178300
     30 O22        -12.7320    -6.6360     1.6450 oh         1 6O7      -0.640000
     31 C53        -11.5130    -4.5330     1.3580 c6         1 6O7      -0.148400
     32 C47         -8.1040    -1.8370     1.9200 c6         1 6O7      -0.139400
     33 C44         -4.1310     0.0390     1.7150 ca         1 6O7      -0.252000
     34 C43         -2.8340     0.5690     1.7660 ca         1 6O7       0.099000
     35 C18         -2.2460     1.0190     0.5760 ca         1 6O7      -0.170000
     36 C17         -0.9530     1.5570     0.5720 ca         1 6O7       0.047700
     37 C16         -0.3470     2.0270    -0.7470 c6         1 6O7      -0.038100
     38 C21          1.6980     2.9350     0.4590 c6         1 6O7       0.101300
     39 C1          -0.1500     4.6010    -0.2640 c3         1 6O7       0.099300
     40 O3          -0.6650     4.5510     1.0920 os         1 6O7      -0.426000
     41 C15         -1.1590     5.7960     1.6180 c3         1 6O7       0.141900
     42 C2          -1.2490     4.9530    -1.3180 c          1 6O7       0.572100
     43 O2          -2.4420     4.7250    -1.1600 o          1 6O7      -0.570100
     44 C3          -1.6330     6.1820    -3.5060 c3         1 6O7       0.065700
     45 C13         -1.0750     5.8410    -4.9150 c          1 6O7       0.588100
     46 O1           0.0500     5.4010    -5.1230 o          1 6O7      -0.482000
     47 O           -2.0120     6.0500    -5.8960 os         1 6O7      -0.436100
     48 C14         -1.6420     5.7670    -7.2580 c3         1 6O7       0.151900
     49 C4          -1.8130     7.7110    -3.3230 c3         1 6O7      -0.044100
     50 C5          -2.2680     8.1060    -1.9210 ca         1 6O7      -0.091300
     51 C10         -3.6080     7.9130    -1.5300 ca         1 6O7      -0.108000
     52 C9          -4.0290     8.2740    -0.2380 ca         1 6O7      -0.106500
     53 C8          -3.1130     8.8310     0.6700 ca         1 6O7      -0.105000
     54 C7          -1.7760     9.0260     0.2870 ca         1 6O7      -0.106500
     55 C6          -1.3540     8.6630    -1.0040 ca         1 6O7      -0.108000
     56 O4           2.7640     2.1930    -0.2030 os         1 6O7      -0.435000
     57 C22          4.0440     2.1820     0.4510 c6         1 6O7       0.395300
     58 O5           4.5950     3.5110     0.4020 os         1 6O7      -0.493000
     59 C26          5.8710     3.6440     1.0640 c6         1 6O7       0.146300
     60 C27          6.2380     5.1480     1.0160 c3         1 6O7      -0.091100
     61 C25          6.9220     2.7330     0.3570 c6         1 6O7       0.143300
     62 O6           8.2170     2.7970     0.9860 oh         1 6O7      -0.694000
     63 C24          6.4000     1.2660     0.3330 c6         1 6O7       0.177300
     64 C23          4.9840     1.2140    -0.2960 c6         1 6O7      -0.139400
     65 O7           7.3460     0.4340    -0.3790 os         1 6O7      -0.422000
     66 C28          7.1890    -0.9840    -0.2110 c6         1 6O7       0.400300
     67 O8           7.5790    -1.3330     1.1280 os         1 6O7      -0.467000
     68 C32          7.3950    -2.7330     1.4210 c6         1 6O7       0.147300
     69 C33          7.6640    -2.9250     2.9360 c3         1 6O7      -0.089100
     70 C31          8.3060    -3.6190     0.5060 c6         1 6O7       0.127300
     71 O9           9.7120    -3.4920     0.8060 oh         1 6O7      -0.688000
     72 C30          8.0420    -3.2580    -0.9990 c6         1 6O7       0.190300
     73 C29          8.0940    -1.7230    -1.2130 c6         1 6O7      -0.112400
     74 O10          9.0120    -3.8580    -1.8940 os         1 6O7      -0.426000
     75 C34          9.0620    -5.2900    -1.9190 c6         1 6O7       0.400300
     76 O12          9.9510    -5.7140    -0.8700 os         1 6O7      -0.496000
     77 C38         10.0400    -7.1470    -0.7350 c6         1 6O7       0.151300
     78 C39         10.9030    -7.4120     0.5240 c3         1 6O7      -0.093100
     79 C37         10.6370    -7.7740    -2.0390 c6         1 6O7       0.155300
     80 O13         10.6530    -9.2190    -1.9640 oh         1 6O7      -0.697000
     81 C36          9.8180    -7.3040    -3.2960 c6         1 6O7       0.188000
     82 C40         10.5160    -7.7300    -4.6190 c3         1 6O7      -0.115100
     83 O11          8.5360    -7.9380    -3.2800 oh         1 6O7      -0.647000
     84 C35          9.6290    -5.7630    -3.2710 c6         1 6O7      -0.137400
     85 H1           1.0790     3.4260    -1.5460 hc         1 6O7       0.073700
     86 H2           0.2250     5.7460    -2.5070 hn         1 6O7       0.328500
     87 H3           0.8190     1.5610     3.8540 ho         1 6O7       0.542000
     88 H4          -1.2420     0.6090     5.1480 ho         1 6O7       0.502000
     89 H5          -5.8520    -0.8890     5.3280 hc         1 6O7       0.042700
     90 H6          -4.4120    -1.8640     5.6560 hc         1 6O7       0.042700
     91 H7          -4.5350    -0.2030     6.2590 hc         1 6O7       0.042700
     92 H8          -6.2600    -1.4460     0.8450 h2         1 6O7       0.034700
     93 H9          -7.4070     0.0410    -0.7160 h1         1 6O7       0.044700
     94 H10         -7.2310     2.4990    -0.2050 hc         1 6O7       0.048700
     95 H11         -8.7280     2.1540    -1.0800 hc         1 6O7       0.048700
     96 H12         -8.7740     2.4450     0.6690 hc         1 6O7       0.048700
     97 H13         -9.8800     0.1380     1.1180 h1         1 6O7       0.057700
     98 H14        -10.8010    -0.9970    -0.8060 ho         1 6O7       0.506000
     99 H15         -8.4820    -2.2560    -0.1750 h1         1 6O7       0.062700
    100 H16         -9.3700    -4.2580     1.5910 h2         1 6O7       0.017700
    101 H17         -8.8940    -6.1480     0.1340 h1         1 6O7       0.039700
    102 H18        -10.0640    -5.8250    -2.7100 hc         1 6O7       0.047367
    103 H19         -8.3670    -5.5740    -2.2590 hc         1 6O7       0.047367
    104 H20         -9.0780    -7.1890    -2.1510 hc         1 6O7       0.047367
    105 H21        -11.8170    -6.2240    -0.8420 h1         1 6O7       0.057700
    106 H22        -11.6980    -8.3170     0.3300 ho         1 6O7       0.506000
    107 H23        -10.6930    -6.4210     2.0070 h1         1 6O7       0.038700
    108 H24        -12.9350    -6.3320     2.5580 ho         1 6O7       0.444000
    109 H25        -11.7280    -4.2020     2.3830 hc         1 6O7       0.070200
    110 H26        -12.3200    -4.1510     0.7170 hc         1 6O7       0.070200
    111 H27         -7.8060    -2.8670     2.1500 hc         1 6O7       0.074200
    112 H28         -8.6410    -1.4480     2.7970 hc         1 6O7       0.074200
    113 H29         -4.6320    -0.0040     0.7540 ha         1 6O7       0.130000
    114 H30         -2.8000     0.9530    -0.3560 ha         1 6O7       0.124000
    115 H31         -1.1360     2.2450    -1.4780 hc         1 6O7       0.077200
    116 H32          0.2260     1.1950    -1.1800 hc         1 6O7       0.077200
    117 H33          2.1150     3.8940     0.7980 h1         1 6O7       0.070700
    118 H34          0.6050     5.3960    -0.3250 h1         1 6O7       0.041700
    119 H35         -0.3810     6.5700     1.5890 h1         1 6O7       0.037700
    120 H36         -2.0260     6.1530     1.0480 h1         1 6O7       0.037700
    121 H37         -1.4730     5.6680     2.6620 h1         1 6O7       0.037700
    122 H38         -2.6250     5.7160    -3.4550 h1         1 6O7       0.087700
    123 H39         -2.4810     5.9780    -7.9340 h1         1 6O7       0.050033
    124 H40         -0.7910     6.3860    -7.5700 h1         1 6O7       0.050033
    125 H41         -1.3660     4.7110    -7.3790 h1         1 6O7       0.050033
    126 H42         -0.8640     8.2080    -3.5620 hc         1 6O7       0.068200
    127 H43         -2.5350     8.0760    -4.0630 hc         1 6O7       0.068200
    128 H44         -4.3220     7.4810    -2.2270 ha         1 6O7       0.114000
    129 H45         -5.0640     8.1210     0.0580 ha         1 6O7       0.116000
    130 H46         -3.4400     9.1110     1.6700 ha         1 6O7       0.116000
    131 H47         -1.0660     9.4560     0.9900 ha         1 6O7       0.116000
    132 H48         -0.3160     8.8150    -1.2900 ha         1 6O7       0.114000
    133 H49          3.9440     1.8540     1.4950 h2         1 6O7       0.035700
    134 H50          5.7610     3.3410     2.1160 h1         1 6O7       0.045700
    135 H51          5.4560     5.7570     1.4850 hc         1 6O7       0.046033
    136 H52          7.1740     5.3450     1.5520 hc         1 6O7       0.046033
    137 H53          6.3630     5.4960    -0.0160 hc         1 6O7       0.046033
    138 H54          7.0070     3.0720    -0.6870 h1         1 6O7       0.055700
    139 H55          8.7090     2.0080     0.6560 ho         1 6O7       0.504000
    140 H56          6.3360     0.9150     1.3740 h1         1 6O7       0.061700
    141 H57          4.5670     0.2010    -0.2340 hc         1 6O7       0.073700
    142 H58          5.0290     1.4840    -1.3590 hc         1 6O7       0.073700
    143 H59          6.1430    -1.2730    -0.3840 h2         1 6O7       0.007700
    144 H60          6.3430    -2.9920     1.2330 h1         1 6O7       0.028700
    145 H61          6.9640    -2.3310     3.5360 hc         1 6O7       0.046700
    146 H62          7.5410    -3.9750     3.2260 hc         1 6O7       0.046700
    147 H63          8.6810    -2.6180     3.2080 hc         1 6O7       0.046700
    148 H64          7.9980    -4.6640     0.6620 h1         1 6O7       0.050700
    149 H65         10.1390    -4.1370     0.1860 ho         1 6O7       0.499000
    150 H66          7.0400    -3.6160    -1.2780 h1         1 6O7       0.037700
    151 H67          7.7820    -1.4810    -2.2370 hc         1 6O7       0.078200
    152 H68          9.1260    -1.3650    -1.1010 hc         1 6O7       0.078200
    153 H69          8.0550    -5.7080    -1.7640 h2         1 6O7       0.028700
    154 H70          9.0310    -7.5490    -0.5560 h1         1 6O7       0.061700
    155 H71         10.4790    -6.9080     1.4010 hc         1 6O7       0.044367
    156 H72         10.9530    -8.4820     0.7560 hc         1 6O7       0.044367
    157 H73         11.9280    -7.0470     0.3890 hc         1 6O7       0.044367
    158 H74         11.6660    -7.3990    -2.1510 h1         1 6O7       0.041700
    159 H75         11.4220    -9.4710    -1.4020 ho         1 6O7       0.500000
    160 H76          9.9470    -7.3960    -5.4960 hc         1 6O7       0.047033
    161 H77         11.5210    -7.2970    -4.6940 hc         1 6O7       0.047033
    162 H78         10.6210    -8.8190    -4.6910 hc         1 6O7       0.047033
    163 H79          8.7240    -8.8410    -2.9370 ho         1 6O7       0.440000
    164 H80          8.9570    -5.4490    -4.0800 hc         1 6O7       0.069200
    165 H81         10.5910    -5.2640    -3.4490 hc         1 6O7       0.069200
@<TRIPOS>BOND
     1     1    37 1   
     2     1    38 1   
     3     1    39 1   
     4     1    85 1   
     5     2    42 1   
     6     2    44 1   
     7     2    86 1   
     8     3     4 2   
     9     4     5 1   
    10     4    38 1   
    11     5     6 ar  
    12     5    36 ar  
    13     6     7 1   
    14     6     8 ar  
    15     7    87 1   
    16     8     9 ar  
    17     8    34 ar  
    18     9    10 1   
    19     9    11 ar  
    20    10    88 1   
    21    11    12 1   
    22    11    13 ar  
    23    12    89 1   
    24    12    90 1   
    25    12    91 1   
    26    13    14 1   
    27    13    33 ar  
    28    14    15 1   
    29    15    16 1   
    30    15    32 1   
    31    15    92 1   
    32    16    17 1   
    33    17    18 1   
    34    17    19 1   
    35    17    93 1   
    36    18    94 1   
    37    18    95 1   
    38    18    96 1   
    39    19    20 1   
    40    19    21 1   
    41    19    97 1   
    42    20    98 1   
    43    21    22 1   
    44    21    32 1   
    45    21    99 1   
    46    22    23 1   
    47    23    24 1   
    48    23    31 1   
    49    23   100 1   
    50    24    25 1   
    51    25    26 1   
    52    25    27 1   
    53    25   101 1   
    54    26   102 1   
    55    26   103 1   
    56    26   104 1   
    57    27    28 1   
    58    27    29 1   
    59    27   105 1   
    60    28   106 1   
    61    29    30 1   
    62    29    31 1   
    63    29   107 1   
    64    30   108 1   
    65    31   109 1   
    66    31   110 1   
    67    32   111 1   
    68    32   112 1   
    69    33    34 ar  
    70    33   113 1   
    71    34    35 ar  
    72    35    36 ar  
    73    35   114 1   
    74    36    37 1   
    75    37   115 1   
    76    37   116 1   
    77    38    56 1   
    78    38   117 1   
    79    39    40 1   
    80    39    42 1   
    81    39   118 1   
    82    40    41 1   
    83    41   119 1   
    84    41   120 1   
    85    41   121 1   
    86    42    43 2   
    87    44    45 1   
    88    44    49 1   
    89    44   122 1   
    90    45    46 2   
    91    45    47 1   
    92    47    48 1   
    93    48   123 1   
    94    48   124 1   
    95    48   125 1   
    96    49    50 1   
    97    49   126 1   
    98    49   127 1   
    99    50    51 ar  
   100    50    55 ar  
   101    51    52 ar  
   102    51   128 1   
   103    52    53 ar  
   104    52   129 1   
   105    53    54 ar  
   106    53   130 1   
   107    54    55 ar  
   108    54   131 1   
   109    55   132 1   
   110    56    57 1   
   111    57    58 1   
   112    57    64 1   
   113    57   133 1   
   114    58    59 1   
   115    59    60 1   
   116    59    61 1   
   117    59   134 1   
   118    60   135 1   
   119    60   136 1   
   120    60   137 1   
   121    61    62 1   
   122    61    63 1   
   123    61   138 1   
   124    62   139 1   
   125    63    64 1   
   126    63    65 1   
   127    63   140 1   
   128    64   141 1   
   129    64   142 1   
   130    65    66 1   
   131    66    67 1   
   132    66    73 1   
   133    66   143 1   
   134    67    68 1   
   135    68    69 1   
   136    68    70 1   
   137    68   144 1   
   138    69   145 1   
   139    69   146 1   
   140    69   147 1   
   141    70    71 1   
   142    70    72 1   
   143    70   148 1   
   144    71   149 1   
   145    72    73 1   
   146    72    74 1   
   147    72   150 1   
   148    73   151 1   
   149    73   152 1   
   150    74    75 1   
   151    75    76 1   
   152    75    84 1   
   153    75   153 1   
   154    76    77 1   
   155    77    78 1   
   156    77    79 1   
   157    77   154 1   
   158    78   155 1   
   159    78   156 1   
   160    78   157 1   
   161    79    80 1   
   162    79    81 1   
   163    79   158 1   
   164    80   159 1   
   165    81    82 1   
   166    81    83 1   
   167    81    84 1   
   168    82   160 1   
   169    82   161 1   
   170    82   162 1   
   171    83   163 1   
   172    84   164 1   
   173    84   165 1   
@<TRIPOS>SUBSTRUCTURE
     1 6O7         1 TEMP              0 ****  ****    0 ROOT
