@<TRIPOS>MOLECULE
6O8
   67    66     1     0     0
SMALL
No Charge or Current Charge


@<TRIPOS>ATOM
      1 C01          2.8650     4.6330     2.4110 c3         1 6O8      -0.092100
      2 C02          1.9850     3.3700     2.3580 c3         1 6O8      -0.074400
      3 C03          1.6350     2.9380     0.9180 c3         1 6O8      -0.073400
      4 C04          0.7800     1.6500     0.8640 c3         1 6O8      -0.130400
      5 C05          0.5300     1.1810    -0.5730 c          1 6O8       0.618100
      6 O06          1.4240     0.8460    -1.3380 o          1 6O8      -0.483000
      7 O07         -0.8060     1.1520    -0.8840 os         1 6O8      -0.438100
      8 C08         -1.2090     0.5870    -2.1540 c3         1 6O8       0.150600
      9 C09         -1.4740    -0.9550    -2.0510 c3         1 6O8       0.148300
     10 C10         -0.3200    -1.8340    -1.4730 c3         1 6O8       0.230600
     11 O11         -0.2320    -1.6800    -0.0440 os         1 6O8      -0.588400
     12 P12          0.6710    -2.6810     0.8380 p5         1 6O8       1.382800
     13 O13          0.0200    -2.9490     2.1530 o          1 6O8      -0.814000
     14 O14          0.9950    -3.9460     0.1160 o          1 6O8      -0.814000
     15 O15          1.9730    -1.7560     1.0350 os         1 6O8      -0.579400
     16 C16          3.0170    -1.7320     0.0560 c3         1 6O8       0.215600
     17 C17          3.8430    -0.4330     0.2450 c3         1 6O8       0.080600
     18 N18          4.7010    -0.2420     1.5160 n4         1 6O8      -0.484000
     19 C19          5.7830    -1.3280     1.5890 c3         1 6O8       0.073233
     20 C20          5.3770     1.1330     1.4490 c3         1 6O8       0.073233
     21 C21          3.8360    -0.3040     2.7830 c3         1 6O8       0.073233
     22 O22         -2.6770    -1.2060    -1.2780 os         1 6O8      -0.420100
     23 C23         -3.9020    -0.9130    -1.8190 c          1 6O8       0.593100
     24 O24         -4.0810    -0.5030    -2.9580 o          1 6O8      -0.506000
     25 C25         -5.0340    -1.1620    -0.8220 c3         1 6O8      -0.138400
     26 C26         -5.4070     0.1350    -0.0660 c3         1 6O8      -0.068400
     27 C27         -6.5380    -0.0690     0.9650 c3         1 6O8      -0.077400
     28 C28         -6.9100     1.2260     1.7190 c3         1 6O8      -0.075400
     29 C29         -8.0380     1.0230     2.7480 c3         1 6O8      -0.088100
     30 H011         2.3550     5.4810     1.9390 hc         1 6O8       0.032033
     31 H012         3.0860     4.9010     3.4510 hc         1 6O8       0.032033
     32 H1           3.8160     4.4660     1.8900 hc         1 6O8       0.032033
     33 H022         2.5100     2.5530     2.8670 hc         1 6O8       0.023200
     34 H021         1.0600     3.5540     2.9180 hc         1 6O8       0.023200
     35 H031         1.0950     3.7510     0.4140 hc         1 6O8       0.060700
     36 H032         2.5650     2.7780     0.3580 hc         1 6O8       0.060700
     37 H041         1.3120     0.8510     1.3900 hc         1 6O8       0.063700
     38 H042        -0.1780     1.8180     1.3700 hc         1 6O8       0.063700
     39 H081        -2.1280     1.0790    -2.4930 h1         1 6O8       0.067700
     40 H082        -0.4600     0.7780    -2.9340 h1         1 6O8       0.067700
     41 H091        -1.6250    -1.3120    -3.0780 h1         1 6O8       0.064700
     42 H102        -0.5350    -2.8800    -1.7310 h1         1 6O8       0.045700
     43 H101         0.6230    -1.5630    -1.9620 h1         1 6O8       0.045700
     44 H162         3.6720    -2.6060     0.1600 h1         1 6O8       0.056200
     45 H161         2.6040    -1.7390    -0.9610 h1         1 6O8       0.056200
     46 H171         4.5210    -0.3490    -0.6060 hx         1 6O8       0.080700
     47 H172         3.1550     0.4110     0.1980 hx         1 6O8       0.080700
     48 H193         6.4010    -1.2840     0.6900 hx         1 6O8       0.095478
     49 H191         6.4060    -1.1570     2.4700 hx         1 6O8       0.095478
     50 H192         5.3080    -2.3080     1.6630 hx         1 6O8       0.095478
     51 H202         4.6110     1.9090     1.4080 hx         1 6O8       0.095478
     52 H203         5.9960     1.2740     2.3380 hx         1 6O8       0.095478
     53 H201         6.0020     1.1850     0.5550 hx         1 6O8       0.095478
     54 H213         3.3890    -1.2960     2.8660 hx         1 6O8       0.095478
     55 H212         4.4610    -0.1090     3.6570 hx         1 6O8       0.095478
     56 H211         3.0470     0.4470     2.7170 hx         1 6O8       0.095478
     57 H252        -5.9150    -1.5320    -1.3600 hc         1 6O8       0.071700
     58 H251        -4.7000    -1.8930    -0.0750 hc         1 6O8       0.071700
     59 H262        -4.5170     0.5220     0.4460 hc         1 6O8       0.052200
     60 H261        -5.7140     0.8990    -0.7920 hc         1 6O8       0.052200
     61 H272        -7.4280    -0.4550     0.4520 hc         1 6O8       0.035700
     62 H271        -6.2310    -0.8330     1.6910 hc         1 6O8       0.035700
     63 H281        -6.0230     1.6140     2.2350 hc         1 6O8       0.039700
     64 H282        -7.2200     1.9920     0.9970 hc         1 6O8       0.039700
     65 H291        -8.9520     0.6680     2.2570 hc         1 6O8       0.030700
     66 H292        -7.7440     0.2870     3.5070 hc         1 6O8       0.030700
     67 H3          -8.2670     1.9670     3.2570 hc         1 6O8       0.030700
@<TRIPOS>BOND
     1     1     2 1   
     2     1    30 1   
     3     1    31 1   
     4     1    32 1   
     5     2     3 1   
     6     2    33 1   
     7     2    34 1   
     8     3     4 1   
     9     3    35 1   
    10     3    36 1   
    11     4     5 1   
    12     4    37 1   
    13     4    38 1   
    14     5     6 2   
    15     5     7 1   
    16     7     8 1   
    17     8     9 1   
    18     8    39 1   
    19     8    40 1   
    20     9    10 1   
    21     9    22 1   
    22     9    41 1   
    23    10    11 1   
    24    10    42 1   
    25    10    43 1   
    26    11    12 1   
    27    12    13 1   
    28    12    14 1   
    29    12    15 1   
    30    15    16 1   
    31    16    17 1   
    32    16    44 1   
    33    16    45 1   
    34    17    18 1   
    35    17    46 1   
    36    17    47 1   
    37    18    19 1   
    38    18    20 1   
    39    18    21 1   
    40    19    48 1   
    41    19    49 1   
    42    19    50 1   
    43    20    51 1   
    44    20    52 1   
    45    20    53 1   
    46    21    54 1   
    47    21    55 1   
    48    21    56 1   
    49    22    23 1   
    50    23    24 2   
    51    23    25 1   
    52    25    26 1   
    53    25    57 1   
    54    25    58 1   
    55    26    27 1   
    56    26    59 1   
    57    26    60 1   
    58    27    28 1   
    59    27    61 1   
    60    27    62 1   
    61    28    29 1   
    62    28    63 1   
    63    28    64 1   
    64    29    65 1   
    65    29    66 1   
    66    29    67 1   
@<TRIPOS>SUBSTRUCTURE
     1 6O8         1 TEMP              0 ****  ****    0 ROOT
