@<TRIPOS>MOLECULE
6O8
   67    66     1     0     0
SMALL
abcg2


@<TRIPOS>ATOM
      1 C01          4.7610     3.8650     0.9950 c3         1 6O8      -0.092100
      2 C02          3.2730     3.5550     1.0720 c3         1 6O8      -0.074400
      3 C03          2.6960     3.1160    -0.2680 c3         1 6O8      -0.073400
      4 C04          1.2290     2.7400    -0.1570 c3         1 6O8      -0.130400
      5 C05          0.6030     2.3370    -1.4620 c          1 6O8       0.618100
      6 O06          1.1830     2.2230    -2.5100 o          1 6O8      -0.483000
      7 O07         -0.7080     2.1450    -1.3120 os         1 6O8      -0.438100
      8 C08         -1.4750     1.6590    -2.4060 c3         1 6O8       0.150600
      9 C09         -1.7510     0.1700    -2.3000 c3         1 6O8       0.148300
     10 C10         -0.5390    -0.7330    -2.3930 c3         1 6O8       0.230600
     11 O11          0.2930    -0.5570    -1.2660 os         1 6O8      -0.588400
     12 P12          1.5850    -1.5440    -1.0880 p5         1 6O8       1.382800
     13 O13          1.2860    -2.5870    -0.0490 o          1 6O8      -0.814000
     14 O14          2.1280    -1.9510    -2.4210 o          1 6O8      -0.814000
     15 O15          2.5450    -0.3910    -0.4020 os         1 6O8      -0.579400
     16 C16          3.8480    -0.7750    -0.0350 c3         1 6O8       0.215600
     17 C17          4.2380    -0.2610     1.3310 c3         1 6O8       0.080600
     18 N18          3.5590    -0.8680     2.5300 n4         1 6O8      -0.484000
     19 C19          3.6880    -2.3520     2.5250 c3         1 6O8       0.073233
     20 C20          4.2430    -0.3240     3.7380 c3         1 6O8       0.073233
     21 C21          2.1130    -0.5050     2.6050 c3         1 6O8       0.073233
     22 O22         -2.4170    -0.1400    -1.0710 os         1 6O8      -0.420100
     23 C23         -3.7390     0.0060    -0.9930 c          1 6O8       0.593100
     24 O24         -4.4200     0.4020    -1.9050 o          1 6O8      -0.506000
     25 C25         -4.2500    -0.3910     0.3640 c3         1 6O8      -0.138400
     26 C26         -5.7540    -0.2430     0.5190 c3         1 6O8      -0.068400
     27 C27         -6.2310    -0.6770     1.9000 c3         1 6O8      -0.077400
     28 C28         -7.7380    -0.5410     2.0770 c3         1 6O8      -0.075400
     29 C29         -8.2140    -0.9880     3.4520 c3         1 6O8      -0.088100
     30 H011         4.9570     4.6720     0.2860 hc         1 6O8       0.032033
     31 H012         5.1580     4.1690     1.9640 hc         1 6O8       0.032033
     32 H1           5.3310     2.9960     0.6610 hc         1 6O8       0.032033
     33 H022         3.0970     2.7740     1.8210 hc         1 6O8       0.023200
     34 H021         2.7290     4.4320     1.4330 hc         1 6O8       0.023200
     35 H031         2.8210     3.9250    -0.9930 hc         1 6O8       0.060700
     36 H032         3.2630     2.2660    -0.6550 hc         1 6O8       0.060700
     37 H041         1.0980     1.9020     0.5340 hc         1 6O8       0.063700
     38 H042         0.6490     3.5660     0.2660 hc         1 6O8       0.063700
     39 H081        -2.4130     2.2130    -2.3900 h1         1 6O8       0.067700
     40 H082        -0.9910     1.8630    -3.3620 h1         1 6O8       0.067700
     41 H091        -2.3900    -0.0810    -3.1530 h1         1 6O8       0.064700
     42 H102        -0.8920    -1.7680    -2.4710 h1         1 6O8       0.045700
     43 H101        -0.0150    -0.4980    -3.3240 h1         1 6O8       0.045700
     44 H162         4.0100    -1.8570    -0.0920 h1         1 6O8       0.056200
     45 H161         4.5740    -0.3290    -0.7220 h1         1 6O8       0.056200
     46 H171         5.3050    -0.4430     1.4610 hx         1 6O8       0.080700
     47 H172         4.0810     0.8160     1.4010 hx         1 6O8       0.080700
     48 H193         4.7350    -2.6230     2.4090 hx         1 6O8       0.095478
     49 H191         3.3170    -2.7360     3.4710 hx         1 6O8       0.095478
     50 H192         3.0970    -2.7640     1.7120 hx         1 6O8       0.095478
     51 H202         4.1310     0.7570     3.7560 hx         1 6O8       0.095478
     52 H203         3.7880    -0.7510     4.6270 hx         1 6O8       0.095478
     53 H201         5.2980    -0.5810     3.7010 hx         1 6O8       0.095478
     54 H213         1.5600    -1.0220     1.8300 hx         1 6O8       0.095478
     55 H212         1.7380    -0.8040     3.5810 hx         1 6O8       0.095478
     56 H211         2.0070     0.5720     2.4940 hx         1 6O8       0.095478
     57 H252        -3.9440    -1.4260     0.5510 hc         1 6O8       0.071700
     58 H251        -3.7240     0.2070     1.1160 hc         1 6O8       0.071700
     59 H262        -6.0450     0.7970     0.3450 hc         1 6O8       0.052200
     60 H261        -6.2650    -0.8380    -0.2420 hc         1 6O8       0.052200
     61 H272        -5.9370    -1.7170     2.0770 hc         1 6O8       0.035700
     62 H271        -5.7210    -0.0840     2.6680 hc         1 6O8       0.035700
     63 H281        -8.0300     0.5000     1.9070 hc         1 6O8       0.039700
     64 H282        -8.2450    -1.1270     1.3040 hc         1 6O8       0.039700
     65 H291        -7.9780    -2.0400     3.6270 hc         1 6O8       0.030700
     66 H292        -7.7370    -0.4080     4.2440 hc         1 6O8       0.030700
     67 H3          -9.2920    -0.8700     3.5600 hc         1 6O8       0.030700
@<TRIPOS>BOND
     1     1     2 1   
     2     1    30 1   
     3     1    31 1   
     4     1    32 1   
     5     2     3 1   
     6     2    33 1   
     7     2    34 1   
     8     3     4 1   
     9     3    35 1   
    10     3    36 1   
    11     4     5 1   
    12     4    37 1   
    13     4    38 1   
    14     5     6 2   
    15     5     7 1   
    16     7     8 1   
    17     8     9 1   
    18     8    39 1   
    19     8    40 1   
    20     9    10 1   
    21     9    22 1   
    22     9    41 1   
    23    10    11 1   
    24    10    42 1   
    25    10    43 1   
    26    11    12 1   
    27    12    13 1   
    28    12    14 1   
    29    12    15 1   
    30    15    16 1   
    31    16    17 1   
    32    16    44 1   
    33    16    45 1   
    34    17    18 1   
    35    17    46 1   
    36    17    47 1   
    37    18    19 1   
    38    18    20 1   
    39    18    21 1   
    40    19    48 1   
    41    19    49 1   
    42    19    50 1   
    43    20    51 1   
    44    20    52 1   
    45    20    53 1   
    46    21    54 1   
    47    21    55 1   
    48    21    56 1   
    49    22    23 1   
    50    23    24 2   
    51    23    25 1   
    52    25    26 1   
    53    25    57 1   
    54    25    58 1   
    55    26    27 1   
    56    26    59 1   
    57    26    60 1   
    58    27    28 1   
    59    27    61 1   
    60    27    62 1   
    61    28    29 1   
    62    28    63 1   
    63    28    64 1   
    64    29    65 1   
    65    29    66 1   
    66    29    67 1   
@<TRIPOS>SUBSTRUCTURE
     1 6O8         1 TEMP              0 ****  ****    0 ROOT
