@<TRIPOS>MOLECULE
6O9
   45    44     1     0     0
SMALL
No Charge or Current Charge


@<TRIPOS>ATOM
      1 N01         -6.5880    -0.0290    -0.6840 n8         1 6O9      -0.991200
      2 C02         -5.2850     0.6800    -0.6030 c3         1 6O9       0.149800
      3 C03         -4.5720     0.5340     0.7810 c3         1 6O9       0.218600
      4 O04         -4.3240    -0.8540     1.0790 os         1 6O9      -0.593400
      5 P05         -3.0470    -1.6530     0.4950 p5         1 6O9       1.396800
      6 O06         -2.6600    -1.2080    -0.8750 o          1 6O9      -0.828500
      7 O07         -3.3030    -3.1230     0.5400 o          1 6O9      -0.828500
      8 O08         -1.9710    -1.2430     1.6260 os         1 6O9      -0.575400
      9 C09         -1.1520    -0.0670     1.5140 c3         1 6O9       0.218600
     10 C10          0.3130    -0.4860     1.2170 c3         1 6O9       0.159300
     11 C11          1.2890     0.7110     1.3620 c3         1 6O9       0.147600
     12 O12          2.6450     0.2290     1.2730 os         1 6O9      -0.442100
     13 C13          3.6640     1.1400     1.3340 c          1 6O9       0.594100
     14 C14          5.0330     0.4660     1.2150 c3         1 6O9      -0.141400
     15 C15          5.5240     0.4410    -0.2530 c3         1 6O9      -0.068400
     16 C16          6.8820    -0.2770    -0.4220 c3         1 6O9      -0.077400
     17 C17          7.3700    -0.3120    -1.8840 c3         1 6O9      -0.088100
     18 O18          3.5080     2.3480     1.4570 o          1 6O9      -0.498000
     19 O19          0.3820    -0.9680    -0.1480 os         1 6O9      -0.433100
     20 C20          1.2580    -1.9750    -0.4640 c          1 6O9       0.618100
     21 C21          1.2490    -2.2680    -1.9580 c3         1 6O9      -0.153100
     22 O22          1.9520    -2.5840     0.3390 o          1 6O9      -0.501000
     23 H012        -6.8980    -0.0480    -1.6630 hn         1 6O9       0.388000
     24 H011        -6.4230    -1.0180    -0.4570 hn         1 6O9       0.388000
     25 H022        -4.6380     0.2990    -1.4020 h1         1 6O9       0.012700
     26 H021        -5.4650     1.7440    -0.8040 h1         1 6O9       0.012700
     27 H032        -3.6370     1.1070     0.7620 h1         1 6O9       0.027700
     28 H031        -5.2090     0.9750     1.5600 h1         1 6O9       0.027700
     29 H092        -1.5040     0.6050     0.7200 h1         1 6O9       0.032200
     30 H091        -1.1840     0.4920     2.4590 h1         1 6O9       0.032200
     31 H101         0.5860    -1.2610     1.9450 h1         1 6O9       0.089700
     32 H111         1.0810     1.4470     0.5730 h1         1 6O9       0.057700
     33 H112         1.1230     1.1980     2.3330 h1         1 6O9       0.057700
     34 H141         5.7600     1.0110     1.8280 hc         1 6O9       0.070700
     35 H142         4.9460    -0.5750     1.5480 hc         1 6O9       0.070700
     36 H152         4.7710    -0.0610    -0.8770 hc         1 6O9       0.051700
     37 H151         5.6090     1.4710    -0.6230 hc         1 6O9       0.051700
     38 H161         7.6390     0.2250     0.1950 hc         1 6O9       0.036700
     39 H162         6.7990    -1.3070    -0.0510 hc         1 6O9       0.036700
     40 H173         7.5020     0.7050    -2.2740 hc         1 6O9       0.030367
     41 H172         8.3340    -0.8340    -1.9530 hc         1 6O9       0.030367
     42 H3           6.6490    -0.8390    -2.5220 hc         1 6O9       0.030367
     43 H213         1.4920    -1.3460    -2.4990 hc         1 6O9       0.060033
     44 H212         1.9220    -3.0890    -2.2320 hc         1 6O9       0.060033
     45 H4           0.2170    -2.4580    -2.2760 hc         1 6O9       0.060033
@<TRIPOS>BOND
     1     1     2 1   
     2     1    23 1   
     3     1    24 1   
     4     2     3 1   
     5     2    25 1   
     6     2    26 1   
     7     3     4 1   
     8     3    27 1   
     9     3    28 1   
    10     4     5 1   
    11     5     6 1   
    12     5     7 1   
    13     5     8 1   
    14     8     9 1   
    15     9    10 1   
    16     9    29 1   
    17     9    30 1   
    18    10    11 1   
    19    10    19 1   
    20    10    31 1   
    21    11    12 1   
    22    11    32 1   
    23    11    33 1   
    24    12    13 1   
    25    13    14 1   
    26    13    18 2   
    27    14    15 1   
    28    14    34 1   
    29    14    35 1   
    30    15    16 1   
    31    15    36 1   
    32    15    37 1   
    33    16    17 1   
    34    16    38 1   
    35    16    39 1   
    36    17    40 1   
    37    17    41 1   
    38    17    42 1   
    39    19    20 1   
    40    20    21 1   
    41    20    22 2   
    42    21    43 1   
    43    21    44 1   
    44    21    45 1   
@<TRIPOS>SUBSTRUCTURE
     1 6O9         1 TEMP              0 ****  ****    0 ROOT
