@<TRIPOS>MOLECULE
6O9
   45    44     1     0     0
SMALL
abcg2


@<TRIPOS>ATOM
      1 N01         -6.0240    -0.9490     2.1280 n8         1 6O9      -0.991200
      2 C02         -6.2910    -1.1770     0.7170 c3         1 6O9       0.149800
      3 C03         -5.6890    -0.0860    -0.1380 c3         1 6O9       0.218600
      4 O04         -4.2760    -0.1240    -0.0040 os         1 6O9      -0.593400
      5 P05         -3.4180     1.1070    -0.6580 p5         1 6O9       1.396800
      6 O06         -3.6790     2.3860     0.0770 o          1 6O9      -0.828500
      7 O07         -3.5220     1.0770    -2.1520 o          1 6O9      -0.828500
      8 O08         -1.9760     0.4740    -0.1760 os         1 6O9      -0.575400
      9 C09         -0.8290     1.2620    -0.3810 c3         1 6O9       0.218600
     10 C10          0.3850     0.4170    -0.0530 c3         1 6O9       0.159300
     11 C11          1.6630     1.2080    -0.2280 c3         1 6O9       0.147600
     12 O12          2.7340     0.3560     0.1650 os         1 6O9      -0.442100
     13 C13          3.9760     0.8220     0.0520 c          1 6O9       0.594100
     14 C14          4.9840    -0.1810     0.5420 c3         1 6O9      -0.141400
     15 C15          6.4220     0.1800     0.2030 c3         1 6O9      -0.068400
     16 C16          7.4070    -0.8490     0.7440 c3         1 6O9      -0.077400
     17 C17          8.8500    -0.5090     0.3980 c3         1 6O9      -0.088100
     18 O18          4.2310     1.9180    -0.3790 o          1 6O9      -0.498000
     19 O19          0.4220    -0.6870    -0.9600 os         1 6O9      -0.433100
     20 C20          0.3460    -1.9340    -0.5040 c          1 6O9       0.618100
     21 C21          0.3710    -2.9390    -1.6170 c3         1 6O9      -0.153100
     22 O22          0.2650    -2.2270     0.6620 o          1 6O9      -0.501000
     23 H012        -6.4710    -1.6730     2.6740 hn         1 6O9       0.388000
     24 H011        -5.0320    -1.0540     2.3000 hn         1 6O9       0.388000
     25 H022        -5.9430    -2.1520     0.3470 h1         1 6O9       0.012700
     26 H021        -7.3720    -1.1540     0.5560 h1         1 6O9       0.012700
     27 H032        -5.9820    -0.2380    -1.1830 h1         1 6O9       0.027700
     28 H031        -6.0840     0.8860     0.1810 h1         1 6O9       0.027700
     29 H092        -0.7630     1.6210    -1.4150 h1         1 6O9       0.032200
     30 H091        -0.8250     2.1400     0.2730 h1         1 6O9       0.032200
     31 H101         0.3120     0.0620     0.9770 h1         1 6O9       0.089700
     32 H111         1.7850     1.5290    -1.2660 h1         1 6O9       0.057700
     33 H112         1.6300     2.0990     0.4040 h1         1 6O9       0.057700
     34 H141         4.8600    -0.2680     1.6270 hc         1 6O9       0.070700
     35 H142         4.7260    -1.1640     0.1400 hc         1 6O9       0.070700
     36 H152         6.5370     0.2580    -0.8820 hc         1 6O9       0.051700
     37 H151         6.6650     1.1640     0.6120 hc         1 6O9       0.051700
     38 H161         7.2970    -0.9230     1.8300 hc         1 6O9       0.036700
     39 H162         7.1580    -1.8370     0.3450 hc         1 6O9       0.036700
     40 H173         9.1390     0.4560     0.8190 hc         1 6O9       0.030367
     41 H172         9.5420    -1.2580     0.7850 hc         1 6O9       0.030367
     42 H3           8.9930    -0.4530    -0.6830 hc         1 6O9       0.030367
     43 H213         0.5090    -2.4890    -2.5960 hc         1 6O9       0.060033
     44 H212         1.1720    -3.6570    -1.4370 hc         1 6O9       0.060033
     45 H4          -0.5650    -3.4970    -1.6150 hc         1 6O9       0.060033
@<TRIPOS>BOND
     1     1     2 1   
     2     1    23 1   
     3     1    24 1   
     4     2     3 1   
     5     2    25 1   
     6     2    26 1   
     7     3     4 1   
     8     3    27 1   
     9     3    28 1   
    10     4     5 1   
    11     5     6 1   
    12     5     7 1   
    13     5     8 1   
    14     8     9 1   
    15     9    10 1   
    16     9    29 1   
    17     9    30 1   
    18    10    11 1   
    19    10    19 1   
    20    10    31 1   
    21    11    12 1   
    22    11    32 1   
    23    11    33 1   
    24    12    13 1   
    25    13    14 1   
    26    13    18 2   
    27    14    15 1   
    28    14    34 1   
    29    14    35 1   
    30    15    16 1   
    31    15    36 1   
    32    15    37 1   
    33    16    17 1   
    34    16    38 1   
    35    16    39 1   
    36    17    40 1   
    37    17    41 1   
    38    17    42 1   
    39    19    20 1   
    40    20    21 1   
    41    20    22 2   
    42    21    43 1   
    43    21    44 1   
    44    21    45 1   
@<TRIPOS>SUBSTRUCTURE
     1 6O9         1 TEMP              0 ****  ****    0 ROOT
