@<TRIPOS>MOLECULE
6OA
   17    16     1     0     0
SMALL
No Charge or Current Charge


@<TRIPOS>ATOM
      1 O3           4.3770     0.1160    -0.8300 oh         1 6OA      -0.661000
      2 C5           3.7340    -0.2080     0.3980 c3         1 6OA       0.213800
      3 C4           2.3390     0.3590     0.3760 c2         1 6OA      -0.331200
      4 C3           1.2060    -0.3380     0.1570 ce         1 6OA      -0.075000
      5 C2          -0.1260     0.2840     0.1550 ce         1 6OA      -0.328000
      6 C1          -1.3180    -0.3540    -0.0540 cf         1 6OA       0.041900
      7 O2          -1.3280    -1.6890    -0.2870 oh         1 6OA      -0.576100
      8 C           -2.6710     0.3680    -0.0400 c          1 6OA       0.683200
      9 O1          -2.7170     1.5750     0.1660 o          1 6OA      -0.702500
     10 O           -3.6680    -0.3170    -0.2410 o          1 6OA      -0.702500
     11 H5           5.2770    -0.2730    -0.7840 ho         1 6OA       0.416000
     12 H4           2.3020     1.4320     0.5630 ha         1 6OA       0.170000
     13 H3           1.2560    -1.4140    -0.0300 ha         1 6OA       0.154000
     14 H2          -0.1510     1.3590     0.3400 ha         1 6OA       0.195000
     15 H1          -2.2800    -1.9210    -0.4050 ho         1 6OA       0.494000
     16 H6           3.6950    -1.2980     0.5310 h1         1 6OA       0.003700
     17 H7           4.2910     0.2160     1.2430 h1         1 6OA       0.003700
@<TRIPOS>BOND
     1     1     2 1   
     2     1    11 1   
     3     2     3 1   
     4     2    16 1   
     5     2    17 1   
     6     3     4 2   
     7     3    12 1   
     8     4     5 1   
     9     4    13 1   
    10     5     6 2   
    11     5    14 1   
    12     6     7 1   
    13     6     8 1   
    14     7    15 1   
    15     8     9 1   
    16     8    10 1   
@<TRIPOS>SUBSTRUCTURE
     1 6OA         1 TEMP              0 ****  ****    0 ROOT
