@<TRIPOS>MOLECULE
6OA
   17    16     1     0     0
SMALL
bcc


@<TRIPOS>ATOM
      1 O3           4.4880     0.2130    -0.7230 oh         1 6OA      -0.598800
      2 C5           3.6820    -0.2870     0.3300 c3         1 6OA       0.190600
      3 C4           2.3450     0.3710     0.2790 c2         1 6OA      -0.281200
      4 C3           1.1920    -0.2960     0.1440 ce         1 6OA      -0.025000
      5 C2          -0.1140     0.3250     0.1320 ce         1 6OA      -0.278000
      6 C1          -1.2750    -0.3330    -0.0230 cf         1 6OA       0.041900
      7 O2          -1.3490    -1.6610    -0.1900 oh         1 6OA      -0.537100
      8 C           -2.6430     0.3380    -0.0280 c          1 6OA       0.893800
      9 O1          -2.7140     1.5630     0.1230 o          1 6OA      -0.807800
     10 O           -3.5790    -0.4800    -0.1930 o          1 6OA      -0.807800
     11 H5           5.3950    -0.0600    -0.5550 ho         1 6OA       0.377000
     12 H4           2.3310     1.4540     0.3800 ha         1 6OA       0.120000
     13 H3           1.2360    -1.3770     0.0420 ha         1 6OA       0.104000
     14 H2          -0.1700     1.3990     0.2550 ha         1 6OA       0.145000
     15 H1          -2.3140    -1.8120    -0.2780 ho         1 6OA       0.455000
     16 H6           3.5570    -1.3760     0.2620 h1         1 6OA       0.003700
     17 H7           4.1490    -0.0820     1.3020 h1         1 6OA       0.003700
@<TRIPOS>BOND
     1     1     2 1   
     2     1    11 1   
     3     2     3 1   
     4     2    16 1   
     5     2    17 1   
     6     3     4 2   
     7     3    12 1   
     8     4     5 1   
     9     4    13 1   
    10     5     6 2   
    11     5    14 1   
    12     6     7 1   
    13     6     8 1   
    14     7    15 1   
    15     8     9 1   
    16     8    10 1   
@<TRIPOS>SUBSTRUCTURE
     1 6OA         1 TEMP              0 ****  ****    0 ROOT
