@<TRIPOS>MOLECULE
6OB
   51    50     1     0     0
SMALL
No Charge or Current Charge


@<TRIPOS>ATOM
      1 C10         -1.8770     2.6260    -0.0970 c3         1 6OB       0.213500
      2 C18         -4.1620    -5.4950     0.9210 c3         1 6OB      -0.089100
      3 C17         -4.7070    -4.0580     1.0250 c3         1 6OB      -0.074400
      4 C16         -4.2030    -3.1360    -0.1060 c3         1 6OB      -0.078400
      5 C15         -4.7500    -1.6950    -0.0000 c3         1 6OB      -0.071400
      6 C14         -4.2500    -0.7710    -1.1300 c3         1 6OB      -0.044200
      7 C13         -4.8010     0.6370    -1.0030 c2         1 6OB      -0.216200
      8 C12         -4.2490     1.6700    -0.3420 c2         1 6OB      -0.205200
      9 C11         -2.9560     1.6670     0.4630 c3         1 6OB      -0.081200
     10 C9          -0.6340     2.6660     0.7630 c2         1 6OB      -0.274200
     11 C8           0.3870     3.5260     0.6070 c2         1 6OB      -0.170200
     12 C7           1.6330     3.5670     1.4740 c3         1 6OB      -0.162200
     13 C6           2.8990     3.2280     0.6690 c          1 6OB       0.571100
     14 O3           3.4050     4.0390    -0.0980 o          1 6OB      -0.525100
     15 C5           3.4780     1.8130     0.8330 c3         1 6OB      -0.175400
     16 C4           2.8710     0.8380    -0.2030 c3         1 6OB      -0.072400
     17 C3           3.4320    -0.5960    -0.0840 c3         1 6OB      -0.055400
     18 C2           2.8230    -1.5750    -1.1170 c3         1 6OB      -0.204400
     19 C1           3.4400    -2.9760    -0.9520 c          1 6OB       0.717000
     20 O1           4.4590    -3.2340    -1.5730 o          1 6OB      -0.743000
     21 O2           2.9110    -3.7510    -0.1690 o          1 6OB      -0.743000
     22 OXT         -1.4910     2.2100    -1.4050 oh         1 6OB      -0.654000
     23 H10         -2.3090     3.6370    -0.1380 h1         1 6OB       0.068700
     24 H111        -2.5350     0.6580     0.5410 hc         1 6OB       0.054700
     25 H112        -3.1830     1.9710     1.4920 hc         1 6OB       0.054700
     26 H9          -0.6090     1.9260     1.5640 ha         1 6OB       0.169000
     27 H181        -3.0660    -5.4990     0.9730 hc         1 6OB       0.031700
     28 H182        -4.5460    -6.1110     1.7420 hc         1 6OB       0.031700
     29 H183        -4.4660    -5.9580    -0.0260 hc         1 6OB       0.031700
     30 H171        -5.8040    -4.0910     1.0060 hc         1 6OB       0.034200
     31 H172        -4.4160    -3.6360     1.9950 hc         1 6OB       0.034200
     32 H161        -3.1060    -3.1070    -0.0850 hc         1 6OB       0.040200
     33 H162        -4.4940    -3.5620    -1.0750 hc         1 6OB       0.040200
     34 H151        -5.8470    -1.7220    -0.0190 hc         1 6OB       0.036700
     35 H152        -4.4570    -1.2680     0.9670 hc         1 6OB       0.036700
     36 H141        -3.1540    -0.7600    -1.1270 hc         1 6OB       0.046200
     37 H142        -4.5420    -1.1940    -2.1000 hc         1 6OB       0.046200
     38 H13         -5.7440     0.7850    -1.5340 ha         1 6OB       0.161000
     39 H12         -4.7570     2.6370    -0.3440 ha         1 6OB       0.164000
     40 HA           0.3640     4.2690    -0.1960 ha         1 6OB       0.182000
     41 HA1          1.7440     4.5770     1.8850 hc         1 6OB       0.064700
     42 HB2          1.5220     2.8540     2.2990 hc         1 6OB       0.064700
     43 HB1          4.5650     1.8470     0.6990 hc         1 6OB       0.056700
     44 HC2          3.2260     1.4250     1.8270 hc         1 6OB       0.056700
     45 HC1          1.7810     0.8110    -0.0790 hc         1 6OB       0.039700
     46 HD2          3.0680     1.2190    -1.2140 hc         1 6OB       0.039700
     47 HD1          4.5210    -0.5680    -0.2140 hc         1 6OB       0.036700
     48 HE2          3.2410    -0.9750     0.9270 hc         1 6OB       0.036700
     49 HE1          1.7460    -1.6030    -0.9060 hc         1 6OB       0.017200
     50 HF2          3.0690    -1.1630    -2.1040 hc         1 6OB       0.017200
     51 HOT         -1.0140     1.3620    -1.2890 ho         1 6OB       0.446000
@<TRIPOS>BOND
     1     1     9 1   
     2     1    10 1   
     3     1    22 1   
     4     1    23 1   
     5     2     3 1   
     6     2    27 1   
     7     2    28 1   
     8     2    29 1   
     9     3     4 1   
    10     3    30 1   
    11     3    31 1   
    12     4     5 1   
    13     4    32 1   
    14     4    33 1   
    15     5     6 1   
    16     5    34 1   
    17     5    35 1   
    18     6     7 1   
    19     6    36 1   
    20     6    37 1   
    21     7     8 2   
    22     7    38 1   
    23     8     9 1   
    24     8    39 1   
    25     9    24 1   
    26     9    25 1   
    27    10    11 2   
    28    10    26 1   
    29    11    12 1   
    30    11    40 1   
    31    12    13 1   
    32    12    41 1   
    33    12    42 1   
    34    13    14 2   
    35    13    15 1   
    36    15    16 1   
    37    15    43 1   
    38    15    44 1   
    39    16    17 1   
    40    16    45 1   
    41    16    46 1   
    42    17    18 1   
    43    17    47 1   
    44    17    48 1   
    45    18    19 1   
    46    18    49 1   
    47    18    50 1   
    48    19    20 1   
    49    19    21 1   
    50    22    51 1   
@<TRIPOS>SUBSTRUCTURE
     1 6OB         1 TEMP              0 ****  ****    0 ROOT
