@<TRIPOS>MOLECULE
6OB
   51    50     1     0     0
SMALL
abcg2


@<TRIPOS>ATOM
      1 C10         -2.6400     2.8450     0.1650 c3         1 6OB       0.213500
      2 C18         -5.7400    -5.5140    -0.0100 c3         1 6OB      -0.089100
      3 C17         -6.1870    -4.1340     0.4510 c3         1 6OB      -0.074400
      4 C16         -5.4700    -3.0050    -0.2800 c3         1 6OB      -0.078400
      5 C15         -5.8980    -1.6200     0.1880 c3         1 6OB      -0.071400
      6 C14         -5.1810    -0.4930    -0.5570 c3         1 6OB      -0.044200
      7 C13         -5.6260     0.8590    -0.0950 c2         1 6OB      -0.216200
      8 C12         -4.8970     1.7930     0.5120 c2         1 6OB      -0.205200
      9 C11         -3.4420     1.7300     0.8530 c3         1 6OB      -0.081200
     10 C9          -1.2010     2.7800     0.5910 c2         1 6OB      -0.274200
     11 C8          -0.1540     2.7020    -0.2220 c2         1 6OB      -0.170200
     12 C7           1.2610     2.6400     0.2490 c3         1 6OB      -0.162200
     13 C6           1.9860     1.3700    -0.1470 c          1 6OB       0.571100
     14 O3           1.4130     0.4460    -0.6750 o          1 6OB      -0.525100
     15 C5           3.4600     1.3430     0.1640 c3         1 6OB      -0.175400
     16 C4           4.1650     0.0300    -0.1290 c3         1 6OB      -0.072400
     17 C3           5.6520     0.0930     0.2050 c3         1 6OB      -0.055400
     18 C2           6.3680    -1.2150    -0.0880 c3         1 6OB      -0.204400
     19 C1           7.8710    -1.2520     0.2390 c          1 6OB       0.717000
     20 O1           8.3950    -0.2160     0.6940 o          1 6OB      -0.743000
     21 O2           8.4530    -2.3360     0.0180 o          1 6OB      -0.743000
     22 OXT         -2.8130     2.8360    -1.2290 oh         1 6OB      -0.654000
     23 H10         -3.0490     3.8050     0.5050 h1         1 6OB       0.068700
     24 H111        -3.0070     0.7610     0.5920 hc         1 6OB       0.054700
     25 H112        -3.3130     1.8410     1.9340 hc         1 6OB       0.054700
     26 H9          -1.0420     2.7930     1.6670 ha         1 6OB       0.169000
     27 H181        -4.6710    -5.6570     0.1570 hc         1 6OB       0.031700
     28 H182        -6.2670    -6.3060     0.5230 hc         1 6OB       0.031700
     29 H183        -5.9270    -5.6530    -1.0770 hc         1 6OB       0.031700
     30 H171        -7.2670    -4.0300     0.3050 hc         1 6OB       0.034200
     31 H172        -6.0160    -4.0340     1.5270 hc         1 6OB       0.034200
     32 H161        -4.3880    -3.1140    -0.1440 hc         1 6OB       0.040200
     33 H162        -5.6500    -3.0970    -1.3570 hc         1 6OB       0.040200
     34 H151        -6.9810    -1.5100     0.0620 hc         1 6OB       0.036700
     35 H152        -5.7050    -1.5220     1.2610 hc         1 6OB       0.036700
     36 H141        -4.1020    -0.6160    -0.4440 hc         1 6OB       0.046200
     37 H142        -5.3900    -0.5930    -1.6280 hc         1 6OB       0.046200
     38 H13         -6.6780     1.0760    -0.2630 ha         1 6OB       0.161000
     39 H12         -5.3950     2.7180     0.7940 ha         1 6OB       0.164000
     40 HA          -0.3010     2.7020    -1.2970 ha         1 6OB       0.182000
     41 HA1          1.8370     3.4870    -0.1400 hc         1 6OB       0.064700
     42 HB2          1.3200     2.7280     1.3390 hc         1 6OB       0.064700
     43 HB1          3.9250     2.1620    -0.3990 hc         1 6OB       0.056700
     44 HC2          3.5880     1.6270     1.2150 hc         1 6OB       0.056700
     45 HC1          3.6970    -0.7770     0.4430 hc         1 6OB       0.039700
     46 HD2          4.0380    -0.2310    -1.1830 hc         1 6OB       0.039700
     47 HD1          6.1150     0.9060    -0.3610 hc         1 6OB       0.036700
     48 HE2          5.7750     0.3550     1.2600 hc         1 6OB       0.036700
     49 HE1          5.8800    -2.0310     0.4580 hc         1 6OB       0.017200
     50 HF2          6.2430    -1.4730    -1.1460 hc         1 6OB       0.017200
     51 HOT         -2.5890     1.9590    -1.5590 ho         1 6OB       0.446000
@<TRIPOS>BOND
     1     1     9 1   
     2     1    10 1   
     3     1    22 1   
     4     1    23 1   
     5     2     3 1   
     6     2    27 1   
     7     2    28 1   
     8     2    29 1   
     9     3     4 1   
    10     3    30 1   
    11     3    31 1   
    12     4     5 1   
    13     4    32 1   
    14     4    33 1   
    15     5     6 1   
    16     5    34 1   
    17     5    35 1   
    18     6     7 1   
    19     6    36 1   
    20     6    37 1   
    21     7     8 2   
    22     7    38 1   
    23     8     9 1   
    24     8    39 1   
    25     9    24 1   
    26     9    25 1   
    27    10    11 2   
    28    10    26 1   
    29    11    12 1   
    30    11    40 1   
    31    12    13 1   
    32    12    41 1   
    33    12    42 1   
    34    13    14 2   
    35    13    15 1   
    36    15    16 1   
    37    15    43 1   
    38    15    44 1   
    39    16    17 1   
    40    16    45 1   
    41    16    46 1   
    42    17    18 1   
    43    17    47 1   
    44    17    48 1   
    45    18    19 1   
    46    18    49 1   
    47    18    50 1   
    48    19    20 1   
    49    19    21 1   
    50    22    51 1   
@<TRIPOS>SUBSTRUCTURE
     1 6OB         1 TEMP              0 ****  ****    0 ROOT
