@<TRIPOS>MOLECULE
6OC
   51    50     1     0     0
SMALL
No Charge or Current Charge


@<TRIPOS>ATOM
      1 C18         -7.0470     4.6230     0.9050 c3         1 6OC      -0.088100
      2 C17         -6.4230     3.5800    -0.0430 c3         1 6OC      -0.074400
      3 C16         -6.5380     2.1350     0.4900 c3         1 6OC      -0.076400
      4 C15         -5.9120     1.0900    -0.4600 c3         1 6OC      -0.073400
      5 C14         -6.0220    -0.3550     0.0710 c3         1 6OC      -0.042200
      6 C13         -5.3940    -1.3620    -0.8750 c2         1 6OC      -0.223200
      7 C12         -4.1030    -1.7380    -0.9220 c2         1 6OC      -0.206200
      8 C11         -2.9620    -1.2260    -0.0630 c3         1 6OC      -0.017000
      9 C10         -2.2610    -2.3770     0.6340 c2         1 6OC      -0.194200
     10 C9          -0.9370    -2.6180     0.6780 c2         1 6OC      -0.256200
     11 C8           0.1580    -1.7920     0.0340 c3         1 6OC       0.212500
     12 C7           0.4870    -0.5380     0.8610 c3         1 6OC      -0.223400
     13 C6           1.4120     0.4130     0.0930 c          1 6OC       0.574100
     14 O3           0.9940     1.0730    -0.8500 o          1 6OC      -0.518100
     15 C5           2.8560     0.5780     0.6020 c3         1 6OC      -0.175400
     16 C4           3.8850    -0.0960    -0.3370 c3         1 6OC      -0.071400
     17 C3           5.3440     0.0910     0.1340 c3         1 6OC      -0.055400
     18 C2           6.3780    -0.5810    -0.8020 c3         1 6OC      -0.205400
     19 C1           7.8050    -0.3530    -0.2720 c          1 6OC       0.717000
     20 O1           8.2620    -1.1630     0.5200 o          1 6OC      -0.743500
     21 O2           8.4000     0.6520    -0.6290 o          1 6OC      -0.743500
     22 OXT          1.3290    -2.5940    -0.0780 oh         1 6OC      -0.642000
     23 H181        -6.9410     5.6310     0.4860 hc         1 6OC       0.030700
     24 H182        -8.1150     4.4240     1.0540 hc         1 6OC       0.030700
     25 H183        -6.5500     4.6050     1.8830 hc         1 6OC       0.030700
     26 H171        -6.9160     3.6480    -1.0210 hc         1 6OC       0.036200
     27 H172        -5.3660     3.8280    -0.1990 hc         1 6OC       0.036200
     28 H161        -6.0460     2.0720     1.4690 hc         1 6OC       0.037200
     29 H162        -7.5960     1.8920     0.6460 hc         1 6OC       0.037200
     30 H151        -6.4030     1.1500    -1.4390 hc         1 6OC       0.038700
     31 H152        -4.8540     1.3340    -0.6180 hc         1 6OC       0.038700
     32 H141        -5.5550    -0.4120     1.0610 hc         1 6OC       0.043700
     33 H142        -7.0800    -0.6040     0.2250 hc         1 6OC       0.043700
     34 H13         -6.1080    -1.8130    -1.5680 ha         1 6OC       0.162000
     35 H12         -3.7900    -2.4830    -1.6560 ha         1 6OC       0.172000
     36 H111        -2.2670    -0.6600    -0.6930 hc         1 6OC       0.057200
     37 H112        -3.3180    -0.5130     0.6900 hc         1 6OC       0.057200
     38 H10         -2.9460    -3.0540     1.1490 ha         1 6OC       0.165000
     39 H9          -0.5800    -3.4900     1.2270 ha         1 6OC       0.164000
     40 H8          -0.1740    -1.4800    -0.9680 h1         1 6OC       0.091700
     41 H7C1        -0.4500    -0.0060     1.0610 hc         1 6OC       0.062200
     42 H7C2         0.9390    -0.8450     1.8100 hc         1 6OC       0.062200
     43 H5C1         3.0850     1.6490     0.6530 hc         1 6OC       0.054700
     44 H5C2         2.9590     0.1310     1.5970 hc         1 6OC       0.054700
     45 H4C1         3.6650    -1.1680    -0.4080 hc         1 6OC       0.039700
     46 H4C2         3.7770     0.3200    -1.3470 hc         1 6OC       0.039700
     47 H3C1         5.5650     1.1630     0.2050 hc         1 6OC       0.036200
     48 H3C2         5.4510    -0.3230     1.1450 hc         1 6OC       0.036200
     49 H2C1         6.1340    -1.6510    -0.8000 hc         1 6OC       0.017200
     50 H2C2         6.2520    -0.1020    -1.7810 hc         1 6OC       0.017200
     51 HOT1         1.5420    -2.9130     0.8240 ho         1 6OC       0.432000
@<TRIPOS>BOND
     1     1     2 1   
     2     1    23 1   
     3     1    24 1   
     4     1    25 1   
     5     2     3 1   
     6     2    26 1   
     7     2    27 1   
     8     3     4 1   
     9     3    28 1   
    10     3    29 1   
    11     4     5 1   
    12     4    30 1   
    13     4    31 1   
    14     5     6 1   
    15     5    32 1   
    16     5    33 1   
    17     6     7 2   
    18     6    34 1   
    19     7     8 1   
    20     7    35 1   
    21     8     9 1   
    22     8    36 1   
    23     8    37 1   
    24     9    10 2   
    25     9    38 1   
    26    10    11 1   
    27    10    39 1   
    28    11    12 1   
    29    11    22 1   
    30    11    40 1   
    31    12    13 1   
    32    12    41 1   
    33    12    42 1   
    34    13    14 2   
    35    13    15 1   
    36    15    16 1   
    37    15    43 1   
    38    15    44 1   
    39    16    17 1   
    40    16    45 1   
    41    16    46 1   
    42    17    18 1   
    43    17    47 1   
    44    17    48 1   
    45    18    19 1   
    46    18    49 1   
    47    18    50 1   
    48    19    20 1   
    49    19    21 1   
    50    22    51 1   
@<TRIPOS>SUBSTRUCTURE
     1 6OC         1 TEMP              0 ****  ****    0 ROOT
