@<TRIPOS>MOLECULE
6OC
   51    50     1     0     0
SMALL
abcg2


@<TRIPOS>ATOM
      1 C18         -7.9010     4.8710     0.6700 c3         1 6OC      -0.088100
      2 C17         -7.6200     3.6630    -0.2130 c3         1 6OC      -0.074400
      3 C16         -6.8070     2.5890     0.4980 c3         1 6OC      -0.076400
      4 C15         -6.4980     1.3860    -0.3830 c3         1 6OC      -0.073400
      5 C14         -5.7090     0.3020     0.3510 c3         1 6OC      -0.042200
      6 C13         -5.4070    -0.8710    -0.5270 c2         1 6OC      -0.223200
      7 C12         -4.2180    -1.4110    -0.7900 c2         1 6OC      -0.206200
      8 C11         -2.8890    -0.9960    -0.2270 c3         1 6OC      -0.017000
      9 C10         -2.4080    -2.0000     0.7820 c2         1 6OC      -0.194200
     10 C9          -1.2330    -2.6240     0.8170 c2         1 6OC      -0.256200
     11 C8          -0.0850    -2.4520    -0.1360 c3         1 6OC       0.212500
     12 C7           1.0480    -1.6970     0.5500 c3         1 6OC      -0.223400
     13 C6           2.2040    -1.3260    -0.3490 c          1 6OC       0.574100
     14 O3           2.0800    -1.2270    -1.5490 o          1 6OC      -0.518100
     15 C5           3.5030    -1.0500     0.3590 c3         1 6OC      -0.175400
     16 C4           4.5480    -0.2990    -0.4500 c3         1 6OC      -0.071400
     17 C3           5.8280    -0.0710     0.3450 c3         1 6OC      -0.055400
     18 C2           6.8630     0.7250    -0.4310 c3         1 6OC      -0.205400
     19 C1           8.2000     0.9770     0.2890 c          1 6OC       0.717000
     20 O1           8.3890     0.4080     1.3820 o          1 6OC      -0.743500
     21 O2           9.0040     1.7320    -0.2990 o          1 6OC      -0.743500
     22 OXT          0.3580    -3.6980    -0.6380 oh         1 6OC      -0.642000
     23 H181        -8.4850     5.6270     0.1450 hc         1 6OC       0.030700
     24 H182        -8.4590     4.5840     1.5630 hc         1 6OC       0.030700
     25 H183        -6.9720     5.3400     1.0010 hc         1 6OC       0.030700
     26 H171        -8.5660     3.2310    -0.5560 hc         1 6OC       0.036200
     27 H172        -7.0880     3.9800    -1.1150 hc         1 6OC       0.036200
     28 H161        -5.8680     3.0240     0.8590 hc         1 6OC       0.037200
     29 H162        -7.3480     2.2580     1.3920 hc         1 6OC       0.037200
     30 H151        -7.4330     0.9600    -0.7630 hc         1 6OC       0.038700
     31 H152        -5.9330     1.7110    -1.2630 hc         1 6OC       0.038700
     32 H141        -4.7950     0.7340     0.7660 hc         1 6OC       0.043700
     33 H142        -6.3000    -0.0370     1.2100 hc         1 6OC       0.043700
     34 H13         -6.2740    -1.3180    -1.0080 ha         1 6OC       0.162000
     35 H12         -4.1850    -2.2670    -1.4570 ha         1 6OC       0.172000
     36 H111        -2.1680    -0.8830    -1.0390 hc         1 6OC       0.057200
     37 H112        -2.9600    -0.0180     0.2570 hc         1 6OC       0.057200
     38 H10         -3.1220    -2.2250     1.5690 ha         1 6OC       0.165000
     39 H9          -1.0520    -3.3190     1.6340 ha         1 6OC       0.164000
     40 H8          -0.4030    -1.8820    -1.0100 h1         1 6OC       0.091700
     41 H7C1         0.6690    -0.7530     0.9600 hc         1 6OC       0.062200
     42 H7C2         1.4140    -2.2560     1.4190 hc         1 6OC       0.062200
     43 H5C1         3.2810    -0.5210     1.2920 hc         1 6OC       0.054700
     44 H5C2         3.8940    -2.0240     0.6820 hc         1 6OC       0.054700
     45 H4C1         4.7800    -0.8500    -1.3660 hc         1 6OC       0.039700
     46 H4C2         4.1380     0.6640    -0.7690 hc         1 6OC       0.039700
     47 H3C1         5.5860     0.4470     1.2780 hc         1 6OC       0.036200
     48 H3C2         6.2480    -1.0370     0.6400 hc         1 6OC       0.036200
     49 H2C1         7.0820     0.2170    -1.3780 hc         1 6OC       0.017200
     50 H2C2         6.4400     1.6930    -0.7240 hc         1 6OC       0.017200
     51 HOT1         0.6520    -4.2380     0.1040 ho         1 6OC       0.432000
@<TRIPOS>BOND
     1     1     2 1   
     2     1    23 1   
     3     1    24 1   
     4     1    25 1   
     5     2     3 1   
     6     2    26 1   
     7     2    27 1   
     8     3     4 1   
     9     3    28 1   
    10     3    29 1   
    11     4     5 1   
    12     4    30 1   
    13     4    31 1   
    14     5     6 1   
    15     5    32 1   
    16     5    33 1   
    17     6     7 2   
    18     6    34 1   
    19     7     8 1   
    20     7    35 1   
    21     8     9 1   
    22     8    36 1   
    23     8    37 1   
    24     9    10 2   
    25     9    38 1   
    26    10    11 1   
    27    10    39 1   
    28    11    12 1   
    29    11    22 1   
    30    11    40 1   
    31    12    13 1   
    32    12    41 1   
    33    12    42 1   
    34    13    14 2   
    35    13    15 1   
    36    15    16 1   
    37    15    43 1   
    38    15    44 1   
    39    16    17 1   
    40    16    45 1   
    41    16    46 1   
    42    17    18 1   
    43    17    47 1   
    44    17    48 1   
    45    18    19 1   
    46    18    49 1   
    47    18    50 1   
    48    19    20 1   
    49    19    21 1   
    50    22    51 1   
@<TRIPOS>SUBSTRUCTURE
     1 6OC         1 TEMP              0 ****  ****    0 ROOT
