@<TRIPOS>MOLECULE
6OD
   16    15     1     0     0
SMALL
No Charge or Current Charge


@<TRIPOS>ATOM
      1 O2           1.4980     1.7540     0.0680 o          1 6OD      -0.697500
      2 C5           2.1960     0.7500    -0.0100 c          1 6OD       0.709200
      3 O1           3.4230     0.8190    -0.0080 o          1 6OD      -0.697500
      4 C4           1.5370    -0.6710    -0.1060 ce         1 6OD       0.143800
      5 N            2.4240    -1.7560    -0.2060 nv         1 6OD      -0.958000
      6 C3           0.2010    -0.9730    -0.1000 cf         1 6OD      -0.431000
      7 C2          -0.9440    -0.0730    -0.0040 cf         1 6OD       0.034000
      8 C1          -2.2270    -0.5200    -0.0130 ce         1 6OD      -0.491200
      9 C           -3.4150     0.3610     0.0830 c          1 6OD       0.590100
     10 O           -4.5580    -0.0790     0.0710 o          1 6OD      -0.627100
     11 H2           3.4160    -1.5690    -0.0560 hn         1 6OD       0.481000
     12 H3          -0.0650    -2.0280    -0.1780 ha         1 6OD       0.135000
     13 H5          -0.7740     1.0050     0.0800 ha         1 6OD       0.201000
     14 H7          -2.4300    -1.5860    -0.0950 ha         1 6OD       0.169000
     15 H9          -3.2160     1.4520     0.1670 h4         1 6OD      -0.043800
     16 H4           2.0930    -2.6970    -0.0040 hn         1 6OD       0.481000
@<TRIPOS>BOND
     1     1     2 1   
     2     2     3 1   
     3     2     4 1   
     4     4     5 1   
     5     4     6 2   
     6     5    11 1   
     7     5    16 1   
     8     6     7 1   
     9     6    12 1   
    10     7     8 2   
    11     7    13 1   
    12     8     9 1   
    13     8    14 1   
    14     9    10 2   
    15     9    15 1   
@<TRIPOS>SUBSTRUCTURE
     1 6OD         1 TEMP              0 ****  ****    0 ROOT
