@<TRIPOS>MOLECULE
6OD
   16    15     1     0     0
SMALL
bcc


@<TRIPOS>ATOM
      1 O2           1.2940     1.6790     0.0280 o          1 6OD      -0.802800
      2 C5           2.0870     0.7280     0.0070 c          1 6OD       0.919800
      3 O1           3.3290     0.7720     0.0350 o          1 6OD      -0.802800
      4 C4           1.4970    -0.7040    -0.0640 ce         1 6OD       0.143800
      5 N            2.4360    -1.6470    -0.1280 nv         1 6OD      -0.847600
      6 C3           0.1600    -1.0470    -0.0660 cf         1 6OD      -0.381000
      7 C2          -0.9480    -0.1800    -0.0010 cf         1 6OD       0.084000
      8 C1          -2.2560    -0.5810    -0.0040 ce         1 6OD      -0.441200
      9 C           -3.2940     0.3990     0.0670 c          1 6OD       0.590100
     10 O           -4.5000     0.1820     0.0720 o          1 6OD      -0.627100
     11 H2           3.4010    -1.3650    -0.1020 hn         1 6OD       0.425800
     12 H3          -0.0620    -2.1120    -0.1210 ha         1 6OD       0.085000
     13 H5          -0.7480     0.8830     0.0570 ha         1 6OD       0.151000
     14 H7          -2.5260    -1.6320    -0.0600 ha         1 6OD       0.119000
     15 H9          -2.9220     1.4420     0.1200 h4         1 6OD      -0.043800
     16 H4           2.2120    -2.6270    -0.1510 hn         1 6OD       0.425800
@<TRIPOS>BOND
     1     1     2 1   
     2     2     3 1   
     3     2     4 1   
     4     4     5 1   
     5     4     6 2   
     6     5    11 1   
     7     5    16 1   
     8     6     7 1   
     9     6    12 1   
    10     7     8 2   
    11     7    13 1   
    12     8     9 1   
    13     8    14 1   
    14     9    10 2   
    15     9    15 1   
@<TRIPOS>SUBSTRUCTURE
     1 6OD         1 TEMP              0 ****  ****    0 ROOT
