@<TRIPOS>MOLECULE
6OE
   60    59     1     0     0
SMALL
abcg2


@<TRIPOS>ATOM
      1 N01          2.5760    -3.3160     2.6660 n8         1 6OE      -0.964200
      2 C02          3.3370    -2.1970     2.1380 c3         1 6OE       0.145800
      3 C03          3.1840    -2.0570     0.6400 c3         1 6OE       0.220600
      4 O04          1.8370    -1.7760     0.3090 os         1 6OE      -0.569400
      5 P05          1.4500    -1.7640    -1.2820 p5         1 6OE       1.386800
      6 O06          2.2050    -0.6900    -2.0100 o          1 6OE      -0.832000
      7 O07          1.4680    -3.1600    -1.8290 o          1 6OE      -0.832000
      8 O08         -0.1010    -1.3030    -1.0020 os         1 6OE      -0.561400
      9 C09         -0.9130    -1.0130    -2.1160 c3         1 6OE       0.216600
     10 C10         -1.4210     0.4190    -2.1150 c3         1 6OE       0.152300
     11 C11         -0.3510     1.4830    -2.2130 c3         1 6OE       0.175600
     12 O12          0.4050     1.5040    -1.0120 os         1 6OE      -0.415100
     13 C13          1.6430     1.9810    -1.0560 c          1 6OE       0.632100
     14 C14          2.3510     1.7890     0.2560 c3         1 6OE      -0.128400
     15 C15          3.8660     1.8240     0.1330 c3         1 6OE      -0.069400
     16 C16          4.5550     1.6210     1.4750 c3         1 6OE      -0.076400
     17 C17          6.0730     1.5670     1.3630 c3         1 6OE      -0.076400
     18 C18          6.7570     1.3300     2.7020 c3         1 6OE      -0.086100
     19 O19          2.1040     2.5480    -2.0160 o          1 6OE      -0.512000
     20 O20         -2.1840     0.7000    -0.9350 os         1 6OE      -0.417100
     21 C21         -3.4860     0.4210    -0.9170 c          1 6OE       0.599100
     22 C22         -4.1100     0.8370     0.3870 c3         1 6OE      -0.142400
     23 C23         -5.6190     0.6640     0.4300 c3         1 6OE      -0.066400
     24 C24         -6.2030     1.1350     1.7570 c3         1 6OE      -0.078400
     25 C25         -7.7170     0.9860     1.8270 c3         1 6OE      -0.075400
     26 C26         -8.2940     1.4750     3.1490 c3         1 6OE      -0.088100
     27 O27         -4.0720    -0.0960    -1.8350 o          1 6OE      -0.515000
     28 H011         2.9650    -4.1810     2.3110 hn         1 6OE       0.374500
     29 H012         2.6970    -3.3560     3.6700 hn         1 6OE       0.374500
     30 H022         2.9900    -1.2790     2.6220 h1         1 6OE       0.013700
     31 H021         4.4170    -2.2580     2.3370 h1         1 6OE       0.013700
     32 H032         3.8420    -1.2520     0.2940 h1         1 6OE       0.018200
     33 H031         3.5210    -2.9800     0.1500 h1         1 6OE       0.018200
     34 H092        -0.3980    -1.1660    -3.0720 h1         1 6OE       0.033200
     35 H091        -1.7680    -1.6940    -2.1170 h1         1 6OE       0.033200
     36 H101        -2.0500     0.5280    -3.0050 h1         1 6OE       0.048700
     37 H112         0.2810     1.2640    -3.0740 h1         1 6OE       0.051200
     38 H111        -0.8130     2.4610    -2.3780 h1         1 6OE       0.051200
     39 H142         2.0090     2.5800     0.9340 hc         1 6OE       0.068200
     40 H141         2.0260     0.8460     0.6980 hc         1 6OE       0.068200
     41 H151         4.1800     1.0410    -0.5640 hc         1 6OE       0.060200
     42 H152         4.1860     2.7750    -0.3010 hc         1 6OE       0.060200
     43 H161         4.2680     2.4250     2.1620 hc         1 6OE       0.032200
     44 H162         4.1980     0.6930     1.9370 hc         1 6OE       0.032200
     45 H172         6.3540     0.7750     0.6620 hc         1 6OE       0.038200
     46 H171         6.4370     2.5020     0.9250 hc         1 6OE       0.038200
     47 H181         6.4380     0.3850     3.1470 hc         1 6OE       0.024367
     48 H182         7.8420     1.2930     2.5960 hc         1 6OE       0.024367
     49 H3           6.5230     2.1230     3.4130 hc         1 6OE       0.024367
     50 H222        -3.6350     0.2590     1.1880 hc         1 6OE       0.073200
     51 H221        -3.8360     1.8790     0.5800 hc         1 6OE       0.073200
     52 H231        -6.0800     1.2260    -0.3870 hc         1 6OE       0.049700
     53 H232        -5.8790    -0.3850     0.2690 hc         1 6OE       0.049700
     54 H242        -5.7440     0.5740     2.5790 hc         1 6OE       0.036700
     55 H241        -5.9350     2.1850     1.9210 hc         1 6OE       0.036700
     56 H252        -8.1730     1.5400     1.0000 hc         1 6OE       0.037200
     57 H251        -7.9860    -0.0630     1.6740 hc         1 6OE       0.037200
     58 H262        -8.0830     2.5350     3.3020 hc         1 6OE       0.028033
     59 H261        -9.3760     1.3450     3.1880 hc         1 6OE       0.028033
     60 H4          -7.8640     0.9290     3.9910 hc         1 6OE       0.028033
@<TRIPOS>BOND
     1     1     2 1   
     2     1    28 1   
     3     1    29 1   
     4     2     3 1   
     5     2    30 1   
     6     2    31 1   
     7     3     4 1   
     8     3    32 1   
     9     3    33 1   
    10     4     5 1   
    11     5     6 1   
    12     5     7 1   
    13     5     8 1   
    14     8     9 1   
    15     9    10 1   
    16     9    34 1   
    17     9    35 1   
    18    10    11 1   
    19    10    20 1   
    20    10    36 1   
    21    11    12 1   
    22    11    37 1   
    23    11    38 1   
    24    12    13 1   
    25    13    14 1   
    26    13    19 2   
    27    14    15 1   
    28    14    39 1   
    29    14    40 1   
    30    15    16 1   
    31    15    41 1   
    32    15    42 1   
    33    16    17 1   
    34    16    43 1   
    35    16    44 1   
    36    17    18 1   
    37    17    45 1   
    38    17    46 1   
    39    18    47 1   
    40    18    48 1   
    41    18    49 1   
    42    20    21 1   
    43    21    22 1   
    44    21    27 2   
    45    22    23 1   
    46    22    50 1   
    47    22    51 1   
    48    23    24 1   
    49    23    52 1   
    50    23    53 1   
    51    24    25 1   
    52    24    54 1   
    53    24    55 1   
    54    25    26 1   
    55    25    56 1   
    56    25    57 1   
    57    26    58 1   
    58    26    59 1   
    59    26    60 1   
@<TRIPOS>SUBSTRUCTURE
     1 6OE         1 TEMP              0 ****  ****    0 ROOT
