@<TRIPOS>MOLECULE
6OE
   60    59     1     0     0
SMALL
No Charge or Current Charge


@<TRIPOS>ATOM
      1 N01          3.1810    -3.2160     2.5550 n8         1 6OE      -0.964200
      2 C02          3.8180    -2.0730     1.8460 c3         1 6OE       0.145800
      3 C03          3.5680    -2.0350     0.3070 c3         1 6OE       0.220600
      4 O04          2.1860    -1.7490     0.0530 os         1 6OE      -0.569400
      5 P05          1.6550    -1.8540    -1.4620 p5         1 6OE       1.386800
      6 O06          2.2280    -0.7690    -2.3100 o          1 6OE      -0.832000
      7 O07          1.8890    -3.2110    -2.0380 o          1 6OE      -0.832000
      8 O08          0.0870    -1.6280    -1.1680 os         1 6OE      -0.561400
      9 C09         -0.8120    -1.3980    -2.2650 c3         1 6OE       0.216600
     10 C10         -1.5040     0.0020    -2.1630 c3         1 6OE       0.152300
     11 C11         -0.5590     1.2330    -2.2080 c3         1 6OE       0.175600
     12 O12          0.1850     1.3490    -0.9770 os         1 6OE      -0.415100
     13 C13          1.0110     2.4300    -0.8300 c          1 6OE       0.632100
     14 C14          1.7370     2.4180     0.5190 c3         1 6OE      -0.128400
     15 C15          3.2070     1.9610     0.3680 c3         1 6OE      -0.069400
     16 C16          3.9620     1.9040     1.7140 c3         1 6OE      -0.076400
     17 C17          5.4280     1.4410     1.5670 c3         1 6OE      -0.076400
     18 C18          6.1650     1.3370     2.9150 c3         1 6OE      -0.086100
     19 O19          1.1450     3.3180    -1.6620 o          1 6OE      -0.512000
     20 O20         -2.3180     0.0900    -0.9640 os         1 6OE      -0.417100
     21 C21         -3.4770    -0.6370    -0.8810 c          1 6OE       0.599100
     22 C22         -4.1590    -0.4580     0.4770 c3         1 6OE      -0.142400
     23 C23         -5.2170     0.6700     0.4280 c3         1 6OE      -0.066400
     24 C24         -5.9230     0.8940     1.7830 c3         1 6OE      -0.078400
     25 C25         -6.9800     2.0190     1.7360 c3         1 6OE      -0.075400
     26 C26         -7.6850     2.2420     3.0870 c3         1 6OE      -0.088100
     27 O27         -3.9340    -1.3290    -1.7810 o          1 6OE      -0.515000
     28 H011         3.5620    -4.0940     2.1860 hn         1 6OE       0.374500
     29 H012         3.4790    -3.2080     3.5370 hn         1 6OE       0.374500
     30 H022         3.4580    -1.1410     2.2990 h1         1 6OE       0.013700
     31 H021         4.9010    -2.1340     2.0220 h1         1 6OE       0.013700
     32 H032         4.2030    -1.2570    -0.1360 h1         1 6OE       0.018200
     33 H031         3.8610    -2.9980    -0.1320 h1         1 6OE       0.018200
     34 H092        -0.2840    -1.4490    -3.2270 h1         1 6OE       0.033200
     35 H091        -1.5750    -2.1860    -2.2890 h1         1 6OE       0.033200
     36 H101        -2.1510     0.0950    -3.0450 h1         1 6OE       0.048700
     37 H112         0.1200     1.1370    -3.0650 h1         1 6OE       0.051200
     38 H111        -1.1720     2.1310    -2.3660 h1         1 6OE       0.051200
     39 H142         1.7220     3.4310     0.9380 hc         1 6OE       0.068200
     40 H141         1.2300     1.7200     1.1950 hc         1 6OE       0.068200
     41 H151         3.2270     0.9710    -0.1020 hc         1 6OE       0.060200
     42 H152         3.7300     2.6450    -0.3120 hc         1 6OE       0.060200
     43 H161         3.9450     2.8980     2.1790 hc         1 6OE       0.032200
     44 H162         3.4340     1.2250     2.3940 hc         1 6OE       0.032200
     45 H172         5.4560     0.4630     1.0710 hc         1 6OE       0.038200
     46 H171         5.9670     2.1420     0.9180 hc         1 6OE       0.038200
     47 H181         5.6710     0.6110     3.5720 hc         1 6OE       0.024367
     48 H182         7.2000     1.0090     2.7600 hc         1 6OE       0.024367
     49 H3           6.1850     2.3080     3.4230 hc         1 6OE       0.024367
     50 H222        -4.6470    -1.3970     0.7610 hc         1 6OE       0.073200
     51 H221        -3.4060    -0.1710     1.2200 hc         1 6OE       0.073200
     52 H231        -4.7340     1.6040     0.1140 hc         1 6OE       0.049700
     53 H232        -5.9680     0.4270    -0.3350 hc         1 6OE       0.049700
     54 H242        -6.4060    -0.0410     2.0970 hc         1 6OE       0.036700
     55 H241        -5.1730     1.1370     2.5450 hc         1 6OE       0.036700
     56 H252        -6.5010     2.9550     1.4250 hc         1 6OE       0.037200
     57 H251        -7.7340     1.7780     0.9760 hc         1 6OE       0.037200
     58 H262        -6.9600     2.5200     3.8620 hc         1 6OE       0.028033
     59 H261        -8.4240     3.0480     3.0040 hc         1 6OE       0.028033
     60 H4          -8.2050     1.3320     3.4090 hc         1 6OE       0.028033
@<TRIPOS>BOND
     1     1     2 1   
     2     1    28 1   
     3     1    29 1   
     4     2     3 1   
     5     2    30 1   
     6     2    31 1   
     7     3     4 1   
     8     3    32 1   
     9     3    33 1   
    10     4     5 1   
    11     5     6 1   
    12     5     7 1   
    13     5     8 1   
    14     8     9 1   
    15     9    10 1   
    16     9    34 1   
    17     9    35 1   
    18    10    11 1   
    19    10    20 1   
    20    10    36 1   
    21    11    12 1   
    22    11    37 1   
    23    11    38 1   
    24    12    13 1   
    25    13    14 1   
    26    13    19 2   
    27    14    15 1   
    28    14    39 1   
    29    14    40 1   
    30    15    16 1   
    31    15    41 1   
    32    15    42 1   
    33    16    17 1   
    34    16    43 1   
    35    16    44 1   
    36    17    18 1   
    37    17    45 1   
    38    17    46 1   
    39    18    47 1   
    40    18    48 1   
    41    18    49 1   
    42    20    21 1   
    43    21    22 1   
    44    21    27 2   
    45    22    23 1   
    46    22    50 1   
    47    22    51 1   
    48    23    24 1   
    49    23    52 1   
    50    23    53 1   
    51    24    25 1   
    52    24    54 1   
    53    24    55 1   
    54    25    26 1   
    55    25    56 1   
    56    25    57 1   
    57    26    58 1   
    58    26    59 1   
    59    26    60 1   
@<TRIPOS>SUBSTRUCTURE
     1 6OE         1 TEMP              0 ****  ****    0 ROOT
