@<TRIPOS>MOLECULE
6OH
   15    14     1     0     0
SMALL
No Charge or Current Charge


@<TRIPOS>ATOM
      1 CA6         -3.4670    -0.3500    -0.0480 c          1 6OH       0.587100
      2 OA4         -4.6090     0.0900    -0.0200 o          1 6OH      -0.603100
      3 CA5         -2.2740     0.5300     0.0240 ce         1 6OH      -0.453200
      4 CA4         -0.9900     0.0830    -0.0050 cf         1 6OH       0.008000
      5 CA3          0.1600     0.9780     0.0680 cf         1 6OH      -0.362000
      6 CA2          1.4940     0.6650     0.0500 ce         1 6OH       0.077900
      7 OA3          2.3860     1.6970     0.1320 oh         1 6OH      -0.564100
      8 CA1          2.1540    -0.7250    -0.0540 c          1 6OH       0.682200
      9 OA2          3.3800    -0.7450    -0.0500 o          1 6OH      -0.688000
     10 OA1          1.4760    -1.7410    -0.1340 o          1 6OH      -0.688000
     11 H1          -3.2690    -1.4420    -0.1310 h4         1 6OH      -0.035800
     12 H2          -2.4770     1.5960     0.1040 ha         1 6OH       0.177000
     13 H4          -0.8190    -0.9940    -0.0860 ha         1 6OH       0.201000
     14 H6          -0.0860     2.0380     0.1470 ha         1 6OH       0.158000
     15 H9           3.2650     1.2420     0.1010 ho         1 6OH       0.504000
@<TRIPOS>BOND
     1     1     2 2   
     2     1     3 1   
     3     1    11 1   
     4     3     4 2   
     5     3    12 1   
     6     4     5 1   
     7     4    13 1   
     8     5     6 2   
     9     5    14 1   
    10     6     7 1   
    11     6     8 1   
    12     7    15 1   
    13     8     9 1   
    14     8    10 1   
@<TRIPOS>SUBSTRUCTURE
     1 6OH         1 TEMP              0 ****  ****    0 ROOT
