@<TRIPOS>MOLECULE
6OH
   15    14     1     0     0
SMALL
abcg2


@<TRIPOS>ATOM
      1 CA6         -3.3370    -0.3740    -0.0500 c          1 6OH       0.587100
      2 OA4         -4.5310    -0.1240    -0.0350 o          1 6OH      -0.603100
      3 CA5         -2.2750     0.5960     0.0300 ce         1 6OH      -0.453200
      4 CA4         -0.9870     0.1760     0.0020 cf         1 6OH       0.008000
      5 CA3          0.1390     1.0490     0.0730 cf         1 6OH      -0.362000
      6 CA2          1.4420     0.6730     0.0490 ce         1 6OH       0.077900
      7 OA3          2.3950     1.5920     0.1190 oh         1 6OH      -0.564100
      8 CA1          2.0420    -0.7400    -0.0530 c          1 6OH       0.682200
      9 OA2          3.2930    -0.7050    -0.0400 o          1 6OH      -0.688000
     10 OA1          1.3020    -1.7230    -0.1360 o          1 6OH      -0.688000
     11 H1          -2.9880    -1.4220    -0.1300 h4         1 6OH      -0.035800
     12 H2          -2.5300     1.6480     0.1120 ha         1 6OH       0.177000
     13 H4          -0.7940    -0.8870    -0.0800 ha         1 6OH       0.201000
     14 H6          -0.0660     2.1130     0.1530 ha         1 6OH       0.158000
     15 H9           3.2190     1.0490     0.0840 ho         1 6OH       0.504000
@<TRIPOS>BOND
     1     1     2 2   
     2     1     3 1   
     3     1    11 1   
     4     3     4 2   
     5     3    12 1   
     6     4     5 1   
     7     4    13 1   
     8     5     6 2   
     9     5    14 1   
    10     6     7 1   
    11     6     8 1   
    12     7    15 1   
    13     8     9 1   
    14     8    10 1   
@<TRIPOS>SUBSTRUCTURE
     1 6OH         1 TEMP              0 ****  ****    0 ROOT
