@<TRIPOS>MOLECULE
6OI
   31    30     1     0     0
SMALL
No Charge or Current Charge


@<TRIPOS>ATOM
      1 N1          27.4300   -40.9670   -25.5960 n8         1 6OI      -0.990200
      2 C4          29.0600   -43.4840   -24.5900 c3         1 6OI      -0.111400
      3 C5          29.0910   -45.0080   -24.2950 c3         1 6OI       0.141300
      4 C6          30.1140   -45.7850   -25.1980 c3         1 6OI       0.139500
      5 C7          29.9080   -47.3390   -25.1320 c3         1 6OI       0.223600
      6 C1          27.8430   -41.1970   -24.1640 c3         1 6OI       0.015500
      7 C2          29.1380   -40.4260   -23.6610 c          1 6OI       0.694000
      8 O1          30.0010   -40.1320   -24.4790 o          1 6OI      -0.743500
      9 O2          29.1630   -40.0330   -22.5030 o          1 6OI      -0.743500
     10 C3          27.9310   -42.7170   -23.8470 c3         1 6OI      -0.039400
     11 O3          29.4160   -45.2070   -22.9040 oh         1 6OI      -0.681000
     12 N2          31.5210   -45.4140   -24.8440 n8         1 6OI      -1.018200
     13 O4          28.5740   -47.7260   -25.5350 os         1 6OI      -0.595700
     14 S1          28.1840   -47.6680   -27.1330 s6         1 6OI       1.495300
     15 O5          27.0800   -48.6310   -27.2540 o          1 6OI      -0.719200
     16 O6          29.4110   -48.0600   -27.8410 o          1 6OI      -0.719200
     17 O7          27.7850   -46.2710   -27.3470 o          1 6OI      -0.719200
     18 H2          27.3070   -39.9590   -25.7460 hn         1 6OI       0.376500
     19 H3          28.2330   -41.1900   -26.1950 hn         1 6OI       0.376500
     20 H8          30.0300   -43.0410   -24.3330 hc         1 6OI       0.053700
     21 H7          28.9280   -43.3460   -25.6700 hc         1 6OI       0.053700
     22 H9          28.0870   -45.4030   -24.5070 h1         1 6OI       0.059700
     23 H11         29.9540   -45.4800   -26.2410 h1         1 6OI       0.086700
     24 H13         30.0740   -47.6580   -24.0940 h1         1 6OI       0.035200
     25 H12         30.6740   -47.8430   -25.7350 h1         1 6OI       0.035200
     26 H1          27.0150   -40.8060   -23.5560 h1         1 6OI       0.024700
     27 H6          26.9680   -43.1850   -24.0850 hc         1 6OI       0.023200
     28 H5          28.0680   -42.8310   -22.7650 hc         1 6OI       0.023200
     29 H10         28.7120   -44.7680   -22.3810 ho         1 6OI       0.434000
     30 H15         31.6630   -44.4240   -25.0710 hn         1 6OI       0.394500
     31 H16         31.5630   -45.4130   -23.8170 hn         1 6OI       0.394500
@<TRIPOS>BOND
     1     1     6 1   
     2     1    18 1   
     3     1    19 1   
     4     2     3 1   
     5     2    10 1   
     6     2    20 1   
     7     2    21 1   
     8     3     4 1   
     9     3    11 1   
    10     3    22 1   
    11     4     5 1   
    12     4    12 1   
    13     4    23 1   
    14     5    13 1   
    15     5    24 1   
    16     5    25 1   
    17     6     7 1   
    18     6    10 1   
    19     6    26 1   
    20     7     8 1   
    21     7     9 1   
    22    10    27 1   
    23    10    28 1   
    24    11    29 1   
    25    12    30 1   
    26    12    31 1   
    27    13    14 1   
    28    14    15 1   
    29    14    16 1   
    30    14    17 1   
@<TRIPOS>SUBSTRUCTURE
     1 6OI         1 TEMP              0 ****  ****    0 ROOT
