@<TRIPOS>MOLECULE
6OI
   31    30     1     0     0
SMALL
bcc


@<TRIPOS>ATOM
      1 N1          27.5980   -40.9230   -25.5440 n8         1 6OI      -0.879800
      2 C4          29.0630   -43.4070   -24.5860 c3         1 6OI      -0.111400
      3 C5          28.9940   -44.9260   -24.4570 c3         1 6OI       0.118100
      4 C6          30.0920   -45.6180   -25.2710 c3         1 6OI       0.139500
      5 C7          30.0040   -47.1440   -25.2070 c3         1 6OI       0.200400
      6 C1          27.8660   -41.1800   -24.1330 c3         1 6OI       0.015500
      7 C2          29.1420   -40.5020   -23.5690 c          1 6OI       0.904600
      8 O1          29.9700   -40.0630   -24.3920 o          1 6OI      -0.848800
      9 O2          29.2420   -40.4770   -22.3240 o          1 6OI      -0.848800
     10 C3          27.9220   -42.6900   -23.8690 c3         1 6OI      -0.039400
     11 O3          29.1260   -45.3570   -23.1140 oh         1 6OI      -0.618800
     12 N2          31.4580   -45.2790   -24.8980 n8         1 6OI      -0.907800
     13 O4          28.6970   -47.6710   -25.3990 os         1 6OI      -0.572500
     14 S1          28.1900   -47.9500   -26.9380 s6         1 6OI       1.495300
     15 O5          26.8720   -48.5300   -26.6890 o          1 6OI      -0.719200
     16 O6          29.1690   -48.8820   -27.5080 o          1 6OI      -0.719200
     17 O7          28.1620   -46.6420   -27.6020 o          1 6OI      -0.719200
     18 H2          27.2330   -39.9830   -25.6350 hn         1 6OI       0.321300
     19 H3          28.4900   -40.8880   -26.0240 hn         1 6OI       0.321300
     20 H8          30.0240   -43.0470   -24.2080 hc         1 6OI       0.053700
     21 H7          29.0310   -43.1620   -25.6530 hc         1 6OI       0.053700
     22 H9          28.0260   -45.2450   -24.8690 h1         1 6OI       0.059700
     23 H11         29.9560   -45.3050   -26.3090 h1         1 6OI       0.086700
     24 H13         30.3120   -47.4860   -24.2160 h1         1 6OI       0.035200
     25 H12         30.7110   -47.5720   -25.9240 h1         1 6OI       0.035200
     26 H1          27.0110   -40.7990   -23.5640 h1         1 6OI       0.024700
     27 H6          26.9700   -43.1300   -24.1830 hc         1 6OI       0.023200
     28 H5          27.9980   -42.8450   -22.7900 hc         1 6OI       0.023200
     29 H10         28.3690   -45.0430   -22.6120 ho         1 6OI       0.395000
     30 H15         31.6580   -44.3180   -25.1410 hn         1 6OI       0.339300
     31 H16         31.5710   -45.3480   -23.8930 hn         1 6OI       0.339300
@<TRIPOS>BOND
     1     1     6 1   
     2     1    18 1   
     3     1    19 1   
     4     2     3 1   
     5     2    10 1   
     6     2    20 1   
     7     2    21 1   
     8     3     4 1   
     9     3    11 1   
    10     3    22 1   
    11     4     5 1   
    12     4    12 1   
    13     4    23 1   
    14     5    13 1   
    15     5    24 1   
    16     5    25 1   
    17     6     7 1   
    18     6    10 1   
    19     6    26 1   
    20     7     8 1   
    21     7     9 1   
    22    10    27 1   
    23    10    28 1   
    24    11    29 1   
    25    12    30 1   
    26    12    31 1   
    27    13    14 1   
    28    14    15 1   
    29    14    16 1   
    30    14    17 1   
@<TRIPOS>SUBSTRUCTURE
     1 6OI         1 TEMP              0 ****  ****    0 ROOT
