@<TRIPOS>MOLECULE
6OJ
   27    29     1     0     0
SMALL
abcg2


@<TRIPOS>ATOM
      1 C01          0.6450     2.4700    -0.1760 c3         1 6OJ       0.053900
      2 N02          0.7310     1.0300     0.0050 na         1 6OJ      -0.033700
      3 C03          1.9010     0.2990     0.0470 cc         1 6OJ      -0.132300
      4 C04          3.2740     0.8180     0.1970 c          1 6OJ       0.598200
      5 N05          4.2140    -0.1320     0.0250 ns         1 6OJ      -0.502900
      6 C06          3.9570    -1.4620    -0.5030 c6         1 6OJ       0.111000
      7 C07          2.7130    -2.0610     0.1320 c6         1 6OJ      -0.022200
      8 C08          1.6310    -1.0400     0.0680 cd         1 6OJ      -0.102400
      9 C09          0.2220    -1.1710     0.0490 ca         1 6OJ      -0.098800
     10 C10         -0.6190    -2.2870     0.0580 ca         1 6OJ      -0.045000
     11 C11         -1.9780    -2.0970     0.0220 ca         1 6OJ      -0.130000
     12 C12         -2.5060    -0.7970    -0.0140 ca         1 6OJ       0.140000
     13 C13         -1.7000     0.3280    -0.0210 ca         1 6OJ       0.103000
     14 C14         -0.3080     0.1430     0.0070 ca         1 6OJ      -0.020200
     15 CL1         -2.4240     1.8910    -0.0260 cl         1 6OJ      -0.173000
     16 CL2         -4.2230    -0.6260    -0.0430 cl         1 6OJ      -0.177000
     17 O17          3.5470     1.9730     0.5040 o          1 6OJ      -0.566000
     18 H011         0.0620     2.7100    -1.0610 h1         1 6OJ       0.066700
     19 H012         0.1960     2.9490     0.6920 h1         1 6OJ       0.066700
     20 H013         1.6430     2.8650    -0.3050 h1         1 6OJ       0.066700
     21 H05          5.1730     0.1720     0.0950 hn         1 6OJ       0.323500
     22 H06A         3.8280    -1.4210    -1.5900 h1         1 6OJ       0.047200
     23 H06B         4.8320    -2.0750    -0.2990 h1         1 6OJ       0.047200
     24 H07A         2.4330    -2.9700    -0.4020 hc         1 6OJ       0.063200
     25 H07B         2.9110    -2.3480     1.1700 hc         1 6OJ       0.063200
     26 H10         -0.2090    -3.2880     0.0910 ha         1 6OJ       0.122000
     27 H11         -2.6540    -2.9400     0.0260 ha         1 6OJ       0.132000
@<TRIPOS>BOND
     1     1     2 1   
     2     1    18 1   
     3     1    19 1   
     4     1    20 1   
     5     2     3 1   
     6     2    14 1   
     7     3     4 1   
     8     3     8 2   
     9     4     5 1   
    10     4    17 2   
    11     5     6 1   
    12     5    21 1   
    13     6     7 1   
    14     6    22 1   
    15     6    23 1   
    16     7     8 1   
    17     7    24 1   
    18     7    25 1   
    19     8     9 1   
    20     9    10 ar  
    21     9    14 ar  
    22    10    11 ar  
    23    10    26 1   
    24    11    12 ar  
    25    11    27 1   
    26    12    13 ar  
    27    12    16 1   
    28    13    14 ar  
    29    13    15 1   
@<TRIPOS>SUBSTRUCTURE
     1 6OJ         1 TEMP              0 ****  ****    0 ROOT
