@<TRIPOS>MOLECULE
6OJ
   27    29     1     0     0
SMALL
No Charge or Current Charge


@<TRIPOS>ATOM
      1 C01          0.5510     2.5240    -0.0520 c3         1 6OJ       0.053900
      2 N02          0.7390     1.0620    -0.0110 na         1 6OJ      -0.033700
      3 C03          1.9720     0.3680     0.0060 cc         1 6OJ      -0.132300
      4 C04          3.3830     0.8380     0.0440 c          1 6OJ       0.598200
      5 N05          4.3250    -0.1580    -0.0910 ns         1 6OJ      -0.502900
      6 C06          4.0410    -1.5680    -0.4080 c6         1 6OJ       0.111000
      7 C07          2.6810    -2.0490     0.1470 c6         1 6OJ      -0.022200
      8 C08          1.6270    -0.9750     0.0180 cd         1 6OJ      -0.102400
      9 C09          0.1950    -1.1150    -0.0020 ca         1 6OJ      -0.098800
     10 C10         -0.5950    -2.2710     0.0030 ca         1 6OJ      -0.045000
     11 C11         -1.9920    -2.1090    -0.0110 ca         1 6OJ      -0.130000
     12 C12         -2.5600    -0.8150    -0.0250 ca         1 6OJ       0.140000
     13 C13         -1.7390     0.3420    -0.0270 ca         1 6OJ       0.103000
     14 C14         -0.3320     0.1540    -0.0170 ca         1 6OJ      -0.020200
     15 Cl1         -2.5030     1.9400    -0.0340 cl         1 6OJ      -0.173000
     16 Cl2         -4.3200    -0.6770    -0.0370 cl         1 6OJ      -0.177000
     17 O17          3.7310     2.0020     0.1670 o          1 6OJ      -0.566000
     18 H011        -0.0190     2.7980    -0.9470 h1         1 6OJ       0.066700
     19 H012         0.0160     2.8520     0.8470 h1         1 6OJ       0.066700
     20 H013         1.5160     3.0380    -0.0890 h1         1 6OJ       0.066700
     21 H05          5.2910     0.1450    -0.0580 hn         1 6OJ       0.323500
     22 H06A         4.0350    -1.6670    -1.5030 h1         1 6OJ       0.047200
     23 H06B         4.8520    -2.2000    -0.0210 h1         1 6OJ       0.047200
     24 H07A         2.3770    -2.9700    -0.3680 hc         1 6OJ       0.063200
     25 H07B         2.8010    -2.3120     1.2070 hc         1 6OJ       0.063200
     26 H10         -0.1450    -3.2610     0.0190 ha         1 6OJ       0.122000
     27 H11         -2.6370    -2.9830    -0.0080 ha         1 6OJ       0.132000
@<TRIPOS>BOND
     1     1     2 1   
     2     1    18 1   
     3     1    19 1   
     4     1    20 1   
     5     2     3 1   
     6     2    14 1   
     7     3     4 1   
     8     3     8 2   
     9     4     5 1   
    10     4    17 2   
    11     5     6 1   
    12     5    21 1   
    13     6     7 1   
    14     6    22 1   
    15     6    23 1   
    16     7     8 1   
    17     7    24 1   
    18     7    25 1   
    19     8     9 1   
    20     9    10 ar  
    21     9    14 ar  
    22    10    11 ar  
    23    10    26 1   
    24    11    12 ar  
    25    11    27 1   
    26    12    13 ar  
    27    12    16 1   
    28    13    14 ar  
    29    13    15 1   
@<TRIPOS>SUBSTRUCTURE
     1 6OJ         1 TEMP              0 ****  ****    0 ROOT
