@<TRIPOS>MOLECULE
6OK
   47    50     1     0     0
SMALL
bcc


@<TRIPOS>ATOM
      1 C2          -3.0370     1.0650    -0.2440 ca         1 6OK      -0.043000
      2 C4          -2.7590    -1.3530    -0.0140 ca         1 6OK       0.161400
      3 C5          -4.1220    -1.5400     0.1350 ca         1 6OK      -0.114000
      4 C6          -4.9670    -0.4250     0.1000 ca         1 6OK       0.216400
      5 C1          -4.4180     0.8670    -0.0910 ca         1 6OK      -0.231600
      6 C3          -2.2400    -0.0450    -0.2000 ca         1 6OK      -0.122200
      7 C7          -5.3130     2.0050    -0.1290 c          1 6OK       0.736100
      8 N8          -6.3150    -0.6300     0.2610 nc         1 6OK      -0.702100
      9 C9          -7.0960     0.3980     0.2210 cd         1 6OK       0.706800
     10 N10         -8.4360     0.2540     0.3190 nv         1 6OK      -0.925800
     11 N11         -6.6410     1.6760     0.0340 ns         1 6OK      -0.520400
     12 N12         -0.8760    -0.2280    -0.3020 na         1 6OK      -0.304300
     13 N13         -1.7450    -2.2690    -0.0080 nc         1 6OK      -0.665100
     14 C14         -0.6440    -1.5620    -0.1810 cd         1 6OK       0.679700
     15 N15          0.5870    -2.0870    -0.2520 nu         1 6OK      -0.845200
     16 C16          1.7980    -1.2950    -0.1700 c3         1 6OK       0.224800
     17 O18         -4.9800     3.1700    -0.2890 o          1 6OK      -0.628500
     18 C17          3.0180    -2.2070    -0.2350 c3         1 6OK      -0.042100
     19 C19          6.6610     0.0900     0.1340 ca         1 6OK      -0.076300
     20 C20          7.9060     0.9230     0.2640 c3         1 6OK      -0.038100
     21 C21          7.6090     2.3940     0.0120 c3         1 6OK       0.141400
     22 O22          8.8020     3.1280     0.1800 oh         1 6OK      -0.600800
     23 C23          5.9140    -0.2580     1.2560 ca         1 6OK      -0.122500
     24 C24          4.7500    -1.0030     1.1380 ca         1 6OK      -0.121000
     25 C25          4.2930    -1.4220    -0.1090 ca         1 6OK      -0.090300
     26 C26          5.0350    -1.0710    -1.2320 ca         1 6OK      -0.121000
     27 C27          6.2030    -0.3290    -1.1130 ca         1 6OK      -0.122500
     28 H1          -2.6360     2.0590    -0.3890 ha         1 6OK       0.152000
     29 H2          -4.5410    -2.5270     0.2830 ha         1 6OK       0.162000
     30 H3          -8.7610    -0.6430     0.6410 hn         1 6OK       0.432300
     31 H4          -9.0000     1.0370     0.6060 hn         1 6OK       0.432300
     32 H5          -7.3050     2.4390    -0.0040 hn         1 6OK       0.322500
     33 H6          -0.1890     0.4960    -0.4360 hn         1 6OK       0.306700
     34 H8           0.6480    -3.0590     0.0070 hn         1 6OK       0.456800
     35 H9           1.8360    -0.5860    -1.0020 h1         1 6OK       0.042200
     36 H10          1.8250    -0.7110     0.7580 h1         1 6OK       0.042200
     37 H11          2.9530    -2.9450     0.5700 hc         1 6OK       0.058700
     38 H12          3.0050    -2.7600    -1.1770 hc         1 6OK       0.058700
     39 H13          8.3220     0.8090     1.2680 hc         1 6OK       0.062700
     40 H14          8.6650     0.5810    -0.4440 hc         1 6OK       0.062700
     41 H15          7.2030     2.5130    -1.0020 h1         1 6OK       0.020200
     42 H16          6.8270     2.7270     0.7070 h1         1 6OK       0.020200
     43 H17          8.6050     4.0580     0.0340 ho         1 6OK       0.406000
     44 H18          6.2520     0.0490     2.2390 ha         1 6OK       0.134000
     45 H19          4.1950    -1.2680     2.0310 ha         1 6OK       0.131500
     46 H20          4.7020    -1.3860    -2.2140 ha         1 6OK       0.131500
     47 H21          6.7690    -0.0810    -2.0040 ha         1 6OK       0.134000
@<TRIPOS>BOND
     1     1     5 ar  
     2     1     6 ar  
     3     1    28 1   
     4     2     3 ar  
     5     2     6 ar  
     6     2    13 1   
     7     3     4 ar  
     8     3    29 1   
     9     4     5 ar  
    10     4     8 1   
    11     5     7 1   
    12     6    12 1   
    13     7    11 1   
    14     7    17 2   
    15     8     9 2   
    16     9    10 1   
    17     9    11 1   
    18    10    30 1   
    19    10    31 1   
    20    11    32 1   
    21    12    14 1   
    22    12    33 1   
    23    13    14 2   
    24    14    15 1   
    25    15    16 1   
    26    15    34 1   
    27    16    18 1   
    28    16    35 1   
    29    16    36 1   
    30    18    25 1   
    31    18    37 1   
    32    18    38 1   
    33    19    20 1   
    34    19    23 ar  
    35    19    27 ar  
    36    20    21 1   
    37    20    39 1   
    38    20    40 1   
    39    21    22 1   
    40    21    41 1   
    41    21    42 1   
    42    22    43 1   
    43    23    24 ar  
    44    23    44 1   
    45    24    25 ar  
    46    24    45 1   
    47    25    26 ar  
    48    26    27 ar  
    49    26    46 1   
    50    27    47 1   
@<TRIPOS>SUBSTRUCTURE
     1 6OK         1 TEMP              0 ****  ****    0 ROOT
