@<TRIPOS>MOLECULE
6OK
   47    50     1     0     0
SMALL
No Charge or Current Charge


@<TRIPOS>ATOM
      1 C2          -3.2180     1.1280    -0.0910 ca         1 6OK      -0.025000
      2 C4          -2.8100    -1.2590    -0.0070 ca         1 6OK       0.161400
      3 C5          -4.1830    -1.5270     0.0210 ca         1 6OK      -0.096000
      4 C6          -5.1040    -0.4580    -0.0070 ca         1 6OK       0.216400
      5 C1          -4.6090     0.8720    -0.0630 ca         1 6OK      -0.231600
      6 C3          -2.3560     0.0290    -0.0610 ca         1 6OK      -0.122200
      7 C7          -5.5880     1.9870    -0.0950 c          1 6OK       0.593600
      8 N8          -6.4740    -0.7790     0.0240 nc         1 6OK      -0.702100
      9 C9          -7.2310     0.2900    -0.0050 cd         1 6OK       0.706800
     10 N10         -8.5290     0.0420     0.0300 nv         1 6OK      -1.036200
     11 N11         -6.8720     1.5800    -0.0580 ns         1 6OK      -0.453400
     12 N12         -0.9880     0.0020    -0.0780 na         1 6OK      -0.354600
     13 N13         -1.7640    -2.1690     0.0140 nc         1 6OK      -0.665100
     14 C14         -0.7130    -1.3560    -0.0310 cd         1 6OK       0.679700
     15 N15          0.5260    -1.8750    -0.0270 nu         1 6OK      -0.900400
     16 C16          1.7960    -1.1400    -0.0210 c3         1 6OK       0.224800
     17 O18         -5.2830     3.1680    -0.1500 o          1 6OK      -0.553000
     18 C17          2.9960    -2.1070    -0.0030 c3         1 6OK      -0.042100
     19 C19          6.7870     0.0280     0.0110 ca         1 6OK      -0.076300
     20 C20          8.1100     0.7830     0.0160 c3         1 6OK      -0.038100
     21 C21          7.9060     2.3110     0.0070 c3         1 6OK       0.164600
     22 O22          9.1760     2.9740     0.0120 oh         1 6OK      -0.663000
     23 C23          6.1570    -0.3100     1.2230 ca         1 6OK      -0.104500
     24 C24          4.9330    -1.0020     1.2190 ca         1 6OK      -0.103000
     25 C25          4.3260    -1.3640     0.0020 ca         1 6OK      -0.090300
     26 C26          4.9530    -1.0220    -1.2110 ca         1 6OK      -0.103000
     27 C27          6.1770    -0.3300    -1.2060 ca         1 6OK      -0.104500
     28 H1          -2.8270     2.1430    -0.1350 ha         1 6OK       0.134000
     29 H2          -4.5350    -2.5530     0.0650 ha         1 6OK       0.144000
     30 H3          -8.7490    -0.9190     0.2570 hn         1 6OK       0.487500
     31 H4          -9.1260     0.7380     0.4580 hn         1 6OK       0.487500
     32 H5          -7.5720     2.3010    -0.0980 hn         1 6OK       0.322500
     33 H6          -0.3230     0.7590    -0.1170 hn         1 6OK       0.357000
     34 H8           0.5310    -2.8900     0.0350 hn         1 6OK       0.512000
     35 H9           1.8630    -0.5030    -0.9140 h1         1 6OK       0.042200
     36 H10          1.8460    -0.4890     0.8620 h1         1 6OK       0.042200
     37 H11          2.9240    -2.7530     0.8800 hc         1 6OK       0.058700
     38 H12          2.9380    -2.7680    -0.8760 hc         1 6OK       0.058700
     39 H13          8.7000     0.5060     0.8980 hc         1 6OK       0.062700
     40 H14          8.7110     0.4970    -0.8570 hc         1 6OK       0.062700
     41 H15          7.3320     2.5930    -0.8860 h1         1 6OK       0.020200
     42 H16          7.3210     2.6010     0.8900 h1         1 6OK       0.020200
     43 H17          8.9920     3.9410     0.0060 ho         1 6OK       0.445000
     44 H18          6.6140    -0.0360     2.1720 ha         1 6OK       0.116000
     45 H19          4.4570    -1.2550     2.1640 ha         1 6OK       0.113500
     46 H20          4.4930    -1.2910    -2.1590 ha         1 6OK       0.113500
     47 H21          6.6500    -0.0710    -2.1510 ha         1 6OK       0.116000
@<TRIPOS>BOND
     1     1     5 ar  
     2     1     6 ar  
     3     1    28 1   
     4     2     3 ar  
     5     2     6 ar  
     6     2    13 1   
     7     3     4 ar  
     8     3    29 1   
     9     4     5 ar  
    10     4     8 1   
    11     5     7 1   
    12     6    12 1   
    13     7    11 1   
    14     7    17 2   
    15     8     9 2   
    16     9    10 1   
    17     9    11 1   
    18    10    30 1   
    19    10    31 1   
    20    11    32 1   
    21    12    14 1   
    22    12    33 1   
    23    13    14 2   
    24    14    15 1   
    25    15    16 1   
    26    15    34 1   
    27    16    18 1   
    28    16    35 1   
    29    16    36 1   
    30    18    25 1   
    31    18    37 1   
    32    18    38 1   
    33    19    20 1   
    34    19    23 ar  
    35    19    27 ar  
    36    20    21 1   
    37    20    39 1   
    38    20    40 1   
    39    21    22 1   
    40    21    41 1   
    41    21    42 1   
    42    22    43 1   
    43    23    24 ar  
    44    23    44 1   
    45    24    25 ar  
    46    24    45 1   
    47    25    26 ar  
    48    26    27 ar  
    49    26    46 1   
    50    27    47 1   
@<TRIPOS>SUBSTRUCTURE
     1 6OK         1 TEMP              0 ****  ****    0 ROOT
