@<TRIPOS>MOLECULE
6OM
   17    16     1     0     0
SMALL
No Charge or Current Charge


@<TRIPOS>ATOM
      1 C1          -0.5170     0.5950    -0.0810 c2         1 6OM      -0.097400
      2 C2           0.7300     0.6620     0.4230 c2         1 6OM      -0.212200
      3 C3           1.7130    -0.4790     0.5600 c3         1 6OM       0.197800
      4 C4          -1.4310     1.8060    -0.1680 c3         1 6OM      -0.053900
      5 C5          -1.1590    -0.6770    -0.6180 c3         1 6OM       0.194800
      6 O1           2.4670    -0.5970    -0.6470 oh         1 6OM      -0.658000
      7 O2          -1.7770    -1.4020     0.4510 oh         1 6OM      -0.658000
      8 H1           1.1220     1.6110     0.7900 ha         1 6OM       0.178000
      9 H2           2.3830    -0.2820     1.4080 h1         1 6OM       0.024200
     10 H3           1.1790    -1.4150     0.7730 h1         1 6OM       0.024200
     11 H4          -2.3570     1.6420     0.3970 hc         1 6OM       0.043367
     12 H5          -0.9530     2.7060     0.2370 hc         1 6OM       0.043367
     13 H6          -1.7060     2.0200    -1.2080 hc         1 6OM       0.043367
     14 H7           3.0970    -1.3400    -0.5140 ho         1 6OM       0.440000
     15 H8          -2.1750    -2.2070     0.0530 ho         1 6OM       0.440000
     16 H9          -1.9060    -0.4240    -1.3830 h1         1 6OM       0.025200
     17 H10         -0.3980    -1.2980    -1.1090 h1         1 6OM       0.025200
@<TRIPOS>BOND
     1     1     2 2   
     2     1     4 1   
     3     1     5 1   
     4     2     3 1   
     5     2     8 1   
     6     3     6 1   
     7     3     9 1   
     8     3    10 1   
     9     4    11 1   
    10     4    12 1   
    11     4    13 1   
    12     5     7 1   
    13     5    16 1   
    14     5    17 1   
    15     6    14 1   
    16     7    15 1   
@<TRIPOS>SUBSTRUCTURE
     1 6OM         1 TEMP              0 ****  ****    0 ROOT
