@<TRIPOS>MOLECULE
6OM
   17    16     1     0     0
SMALL
bcc


@<TRIPOS>ATOM
      1 C1          -0.5240     0.4900    -0.0760 c2         1 6OM      -0.097400
      2 C2           0.7610     0.5800     0.2740 c2         1 6OM      -0.162200
      3 C3           1.7740    -0.5140     0.3730 c3         1 6OM       0.174600
      4 C4          -1.4160     1.6980    -0.0620 c3         1 6OM      -0.053900
      5 C5          -1.1960    -0.7810    -0.5130 c3         1 6OM       0.171600
      6 O1           2.8290    -0.2290    -0.5290 oh         1 6OM      -0.595800
      7 O2          -2.2300    -1.0850     0.4040 oh         1 6OM      -0.595800
      8 H1           1.1410     1.5630     0.5440 ha         1 6OM       0.128000
      9 H2           2.1450    -0.5430     1.4060 h1         1 6OM       0.024200
     10 H3           1.3320    -1.4950     0.1740 h1         1 6OM       0.024200
     11 H4          -2.2090     1.5930     0.6790 hc         1 6OM       0.043367
     12 H5          -0.8630     2.6090     0.1650 hc         1 6OM       0.043367
     13 H6          -1.9060     1.8310    -1.0300 hc         1 6OM       0.043367
     14 H7           3.5560    -0.8270    -0.3290 ho         1 6OM       0.401000
     15 H8          -2.7980    -1.7460    -0.0010 ho         1 6OM       0.401000
     16 H9          -1.6020    -0.6170    -1.5200 h1         1 6OM       0.025200
     17 H10         -0.4820    -1.6060    -0.5940 h1         1 6OM       0.025200
@<TRIPOS>BOND
     1     1     2 2   
     2     1     4 1   
     3     1     5 1   
     4     2     3 1   
     5     2     8 1   
     6     3     6 1   
     7     3     9 1   
     8     3    10 1   
     9     4    11 1   
    10     4    12 1   
    11     4    13 1   
    12     5     7 1   
    13     5    16 1   
    14     5    17 1   
    15     6    14 1   
    16     7    15 1   
@<TRIPOS>SUBSTRUCTURE
     1 6OM         1 TEMP              0 ****  ****    0 ROOT
