@<TRIPOS>MOLECULE
6ON
  143   150     1     0     0
SMALL
abcg2


@<TRIPOS>ATOM
      1 C10        -26.0490    -3.9010   -34.7940 c3         1 6ON       0.155100
      2 O01        -21.2660     1.6530   -32.9100 o          1 6ON      -0.626100
      3 C02        -22.1860     2.3720   -33.3050 c          1 6ON       0.603600
      4 N03        -22.7570     2.2360   -34.5150 ns         1 6ON      -0.491900
      5 C04        -22.3740     1.2220   -35.4830 c3         1 6ON       0.098000
      6 C05        -22.9460    -0.1520   -35.1540 c3         1 6ON       0.129100
      7 O06        -24.3470    -0.0820   -34.9050 os         1 6ON      -0.446500
      8 C07        -25.1840    -0.5190   -35.9680 c3         1 6ON       0.144600
      9 C08        -25.3210    -2.0280   -36.0470 c3         1 6ON       0.143100
     10 O09        -25.6980    -2.5280   -34.7770 os         1 6ON      -0.441000
     11 C11        -26.3050    -4.3610   -33.3810 c3         1 6ON       0.138600
     12 O12        -25.0930    -4.2950   -32.6450 os         1 6ON      -0.449000
     13 C13        -25.2070    -4.8380   -31.3390 c3         1 6ON       0.145100
     14 C14        -23.8530    -4.8280   -30.6750 c3         1 6ON       0.150100
     15 O15        -23.4720    -3.4930   -30.3710 os         1 6ON      -0.470000
     16 C16        -22.0810    -3.1950   -30.4280 c3         1 6ON       0.150100
     17 C17        -21.9210    -1.8730   -31.1740 c3         1 6ON       0.145100
     18 O18        -20.5630    -1.4760   -31.3160 os         1 6ON      -0.449000
     19 C19        -19.9980    -0.9770   -30.1040 c3         1 6ON       0.138600
     20 C20        -18.5350    -0.5980   -30.3510 c3         1 6ON       0.155100
     21 O21        -17.6160    -1.2050   -29.4540 os         1 6ON      -0.441000
     22 C22        -17.6770    -0.7810   -28.0990 c3         1 6ON       0.143100
     23 C23        -18.6300    -1.6000   -27.2230 c3         1 6ON       0.144600
     24 O24        -18.6010    -2.9600   -27.6230 os         1 6ON      -0.446500
     25 C25        -19.6820    -3.7230   -27.1080 c3         1 6ON       0.129100
     26 C26        -19.6850    -5.0840   -27.7740 c3         1 6ON       0.098000
     27 N27        -18.5650    -5.9230   -27.3840 ns         1 6ON      -0.491900
     28 C28        -18.4890    -6.5300   -26.1890 c          1 6ON       0.603600
     29 C29        -17.2230    -7.3290   -25.9340 c3         1 6ON      -0.132900
     30 C30        -16.7470    -7.0910   -24.5100 c3         1 6ON       0.107700
     31 C31        -15.5490    -7.8990   -24.1510 cc         1 6ON       0.395800
     32 N32        -14.7570    -8.6130   -24.8990 nd         1 6ON      -0.342000
     33 N33        -13.7420    -9.1000   -24.0860 nd         1 6ON      -0.352500
     34 C34        -13.9410    -8.6600   -22.8690 cc         1 6ON       0.414800
     35 C35        -13.0720    -8.9160   -21.6950 c3         1 6ON      -0.127900
     36 N36        -15.0810    -7.8840   -22.8520 na         1 6ON      -0.267800
     37 N37        -16.3950    -5.6740   -24.3580 n2         1 6ON      -0.571400
     38 C38        -16.2550    -5.1890   -23.1820 ce         1 6ON       0.552000
     39 C39        -15.9130    -3.7470   -23.0810 ca         1 6ON      -0.137900
     40 C40        -16.4420    -2.8390   -24.0010 ca         1 6ON      -0.065500
     41 C41        -16.1120    -1.4930   -23.9390 ca         1 6ON      -0.109500
     42 C42        -15.2350    -1.0600   -22.9520 ca         1 6ON       0.132000
     43 CL         -14.8130     0.6350   -22.8670 cl         1 6ON      -0.216500
     44 C44        -14.6890    -1.9430   -22.0300 ca         1 6ON      -0.109500
     45 C45        -15.0380    -3.2850   -22.0960 ca         1 6ON      -0.065500
     46 C46        -16.3460    -5.9820   -21.9360 cc         1 6ON      -0.199900
     47 C47        -15.7140    -7.2020   -21.8090 cd         1 6ON      -0.117700
     48 S48        -15.9010    -7.8710   -20.2330 ss         1 6ON       0.234500
     49 C49        -16.8440    -6.5120   -19.7180 cd         1 6ON      -0.207800
     50 C50        -17.3790    -6.4630   -18.3210 c3         1 6ON      -0.020300
     51 C51        -17.0090    -5.5920   -20.7180 cc         1 6ON      -0.058800
     52 C52        -17.8870    -4.3850   -20.5600 c3         1 6ON      -0.038800
     53 O53        -19.3880    -6.4590   -25.3470 o          1 6ON      -0.626100
     54 C54        -22.7260     3.5130   -32.4650 c3         1 6ON      -0.132900
     55 C55        -22.9040     3.1120   -31.0070 c3         1 6ON       0.107700
     56 C56        -23.3320     4.2790   -30.1790 cc         1 6ON       0.395800
     57 N57        -23.7060     5.4710   -30.5450 nd         1 6ON      -0.342000
     58 N58        -24.0750     6.1630   -29.4000 nd         1 6ON      -0.352500
     59 C59        -23.9230     5.3700   -28.3710 cc         1 6ON       0.414800
     60 C60        -24.2320     5.7080   -26.9620 c3         1 6ON      -0.127900
     61 N61        -23.4520     4.1500   -28.8110 na         1 6ON      -0.267800
     62 N62        -23.9480     2.0850   -30.9110 n2         1 6ON      -0.571400
     63 C63        -24.1200     1.4420   -29.8150 ce         1 6ON       0.552000
     64 C64        -25.1920     0.4110   -29.8060 ca         1 6ON      -0.137900
     65 C65        -25.9720     0.1880   -28.6700 ca         1 6ON      -0.065500
     66 C66        -26.9690    -0.7780   -28.6720 ca         1 6ON      -0.109500
     67 C67        -27.1710    -1.5330   -29.8200 ca         1 6ON       0.132000
     68 CL2        -28.3990    -2.7780   -29.8250 cl         1 6ON      -0.216500
     69 C69        -26.4100    -1.3290   -30.9630 ca         1 6ON      -0.109500
     70 C70        -25.4310    -0.3490   -30.9510 ca         1 6ON      -0.065500
     71 C71        -23.3830     1.6990   -28.5590 cc         1 6ON      -0.199900
     72 C72        -23.1340     2.9820   -28.1130 cd         1 6ON      -0.117700
     73 S73        -22.3230     3.0070   -26.5960 ss         1 6ON       0.234500
     74 C74        -22.3100     1.2780   -26.5260 cd         1 6ON      -0.207800
     75 C75        -21.6670     0.5810   -25.3690 c3         1 6ON      -0.020300
     76 C76        -22.8990     0.7120   -27.6240 cc         1 6ON      -0.058800
     77 C77        -22.9310    -0.7770   -27.8000 c3         1 6ON      -0.038800
     78 H101       -26.9560    -4.0550   -35.3940 h1         1 6ON       0.046950
     79 H102       -25.2410    -4.4950   -35.2410 h1         1 6ON       0.046950
     80 H031       -23.5610     2.8050   -34.7260 hn         1 6ON       0.323500
     81 H042       -21.2860     1.1460   -35.5120 h1         1 6ON       0.057700
     82 H041       -22.7170     1.5590   -36.4620 h1         1 6ON       0.057700
     83 H051       -22.7180    -0.8420   -35.9700 h1         1 6ON       0.046200
     84 H052       -22.4690    -0.5350   -34.2520 h1         1 6ON       0.046200
     85 H072       -24.8140    -0.1480   -36.9310 h1         1 6ON       0.033950
     86 H071       -26.1620    -0.0710   -35.7830 h1         1 6ON       0.033950
     87 H082       -26.0850    -2.2700   -36.7980 h1         1 6ON       0.036450
     88 H081       -24.3810    -2.4940   -36.3710 h1         1 6ON       0.036450
     89 H112       -27.0720    -3.7300   -32.9150 h1         1 6ON       0.031450
     90 H111       -26.6820    -5.3910   -33.3990 h1         1 6ON       0.031450
     91 H132       -25.9300    -4.2560   -30.7530 h1         1 6ON       0.048700
     92 H131       -25.5650    -5.8750   -31.3890 h1         1 6ON       0.048700
     93 H141       -23.9030    -5.4290   -29.7580 h1         1 6ON       0.034700
     94 H142       -23.1190    -5.2870   -31.3430 h1         1 6ON       0.034700
     95 H161       -21.5310    -3.9810   -30.9530 h1         1 6ON       0.034700
     96 H162       -21.6850    -3.1310   -29.4080 h1         1 6ON       0.034700
     97 H172       -22.4930    -1.0900   -30.6660 h1         1 6ON       0.048700
     98 H171       -22.3230    -1.9830   -32.1800 h1         1 6ON       0.048700
     99 H191       -20.5840    -0.1190   -29.7540 h1         1 6ON       0.031450
    100 H192       -20.0370    -1.7510   -29.3390 h1         1 6ON       0.031450
    101 H201       -18.2590    -0.9660   -31.3390 h1         1 6ON       0.046950
    102 H202       -18.4060     0.4900   -30.3370 h1         1 6ON       0.046950
    103 H222       -16.6590    -0.8590   -27.7120 h1         1 6ON       0.036450
    104 H221       -17.9810     0.2710   -28.0410 h1         1 6ON       0.036450
    105 H232       -18.3070    -1.5000   -26.1790 h1         1 6ON       0.033950
    106 H231       -19.6530    -1.2140   -27.2830 h1         1 6ON       0.033950
    107 H252       -20.6340    -3.2240   -27.3370 h1         1 6ON       0.046200
    108 H251       -19.5920    -3.8230   -26.0200 h1         1 6ON       0.046200
    109 H262       -20.6210    -5.5940   -27.5410 h1         1 6ON       0.057700
    110 H261       -19.6340    -4.9470   -28.8540 h1         1 6ON       0.057700
    111 H271       -17.7880    -6.0110   -28.0190 hn         1 6ON       0.323500
    112 H291       -17.4420    -8.3870   -26.0910 hc         1 6ON       0.080700
    113 H292       -16.4390    -7.0430   -26.6340 hc         1 6ON       0.080700
    114 H301       -17.5530    -7.3480   -23.8120 h1         1 6ON       0.089200
    115 H353       -12.1910    -9.4620   -22.0270 hc         1 6ON       0.064867
    116 H351       -12.7600    -7.9770   -21.2330 hc         1 6ON       0.064867
    117 H352       -13.5850    -9.5100   -20.9370 hc         1 6ON       0.064867
    118 H401       -17.1230    -3.1910   -24.7620 ha         1 6ON       0.134000
    119 H411       -16.5360    -0.7900   -24.6420 ha         1 6ON       0.133250
    120 H441       -14.0020    -1.5890   -21.2740 ha         1 6ON       0.133250
    121 H451       -14.6200    -3.9770   -21.3770 ha         1 6ON       0.134000
    122 H503       -17.1220    -7.3630   -17.7640 hc         1 6ON       0.050533
    123 H502       -16.9770    -5.6040   -17.7790 hc         1 6ON       0.050533
    124 H501       -18.4670    -6.3700   -18.3280 hc         1 6ON       0.050533
    125 H521       -18.9130    -4.6220   -20.8560 hc         1 6ON       0.053033
    126 H522       -17.9110    -4.0540   -19.5220 hc         1 6ON       0.053033
    127 H523       -17.5540    -3.5510   -21.1720 hc         1 6ON       0.053033
    128 H542       -22.0160     4.3400   -32.5400 hc         1 6ON       0.080700
    129 H541       -23.6800     3.8660   -32.8550 hc         1 6ON       0.080700
    130 H551       -21.9590     2.7310   -30.6010 h1         1 6ON       0.089200
    131 H603       -24.7010     6.6900   -26.9370 hc         1 6ON       0.064867
    132 H601       -24.9120     4.9750   -26.5240 hc         1 6ON       0.064867
    133 H602       -23.3310     5.7400   -26.3470 hc         1 6ON       0.064867
    134 H651       -25.8020     0.7670   -27.7720 ha         1 6ON       0.134000
    135 H661       -27.5750    -0.9470   -27.7930 ha         1 6ON       0.133250
    136 H691       -26.5650    -1.9400   -31.8410 ha         1 6ON       0.133250
    137 H701       -24.8300    -0.1820   -31.8310 ha         1 6ON       0.134000
    138 H752       -21.2870     1.2920   -24.6370 hc         1 6ON       0.050533
    139 H751       -22.3810    -0.0740   -24.8650 hc         1 6ON       0.050533
    140 H753       -20.8310    -0.0370   -25.7070 hc         1 6ON       0.050533
    141 H773       -22.0030    -1.1240   -28.2560 hc         1 6ON       0.053033
    142 H771       -23.0290    -1.2680   -26.8340 hc         1 6ON       0.053033
    143 H772       -23.7510    -1.1090   -28.4290 hc         1 6ON       0.053033
@<TRIPOS>BOND
     1     1    10 1   
     2     1    11 1   
     3     1    78 1   
     4     1    79 1   
     5     2     3 2   
     6     3     4 1   
     7     3    54 1   
     8     4     5 1   
     9     4    80 1   
    10     5     6 1   
    11     5    81 1   
    12     5    82 1   
    13     6     7 1   
    14     6    83 1   
    15     6    84 1   
    16     7     8 1   
    17     8     9 1   
    18     8    85 1   
    19     8    86 1   
    20     9    10 1   
    21     9    87 1   
    22     9    88 1   
    23    11    12 1   
    24    11    89 1   
    25    11    90 1   
    26    12    13 1   
    27    13    14 1   
    28    13    91 1   
    29    13    92 1   
    30    14    15 1   
    31    14    93 1   
    32    14    94 1   
    33    15    16 1   
    34    16    17 1   
    35    16    95 1   
    36    16    96 1   
    37    17    18 1   
    38    17    97 1   
    39    17    98 1   
    40    18    19 1   
    41    19    20 1   
    42    19    99 1   
    43    19   100 1   
    44    20    21 1   
    45    20   101 1   
    46    20   102 1   
    47    21    22 1   
    48    22    23 1   
    49    22   103 1   
    50    22   104 1   
    51    23    24 1   
    52    23   105 1   
    53    23   106 1   
    54    24    25 1   
    55    25    26 1   
    56    25   107 1   
    57    25   108 1   
    58    26    27 1   
    59    26   109 1   
    60    26   110 1   
    61    27    28 1   
    62    27   111 1   
    63    28    29 1   
    64    28    53 2   
    65    29    30 1   
    66    29   112 1   
    67    29   113 1   
    68    30    31 1   
    69    30    37 1   
    70    30   114 1   
    71    31    32 2   
    72    31    36 1   
    73    32    33 1   
    74    33    34 2   
    75    34    35 1   
    76    34    36 1   
    77    35   115 1   
    78    35   116 1   
    79    35   117 1   
    80    36    47 1   
    81    37    38 2   
    82    38    39 1   
    83    38    46 1   
    84    39    40 ar  
    85    39    45 ar  
    86    40    41 ar  
    87    40   118 1   
    88    41    42 ar  
    89    41   119 1   
    90    42    43 1   
    91    42    44 ar  
    92    44    45 ar  
    93    44   120 1   
    94    45   121 1   
    95    46    47 2   
    96    46    51 1   
    97    47    48 1   
    98    48    49 1   
    99    49    50 1   
   100    49    51 2   
   101    50   122 1   
   102    50   123 1   
   103    50   124 1   
   104    51    52 1   
   105    52   125 1   
   106    52   126 1   
   107    52   127 1   
   108    54    55 1   
   109    54   128 1   
   110    54   129 1   
   111    55    56 1   
   112    55    62 1   
   113    55   130 1   
   114    56    57 2   
   115    56    61 1   
   116    57    58 1   
   117    58    59 2   
   118    59    60 1   
   119    59    61 1   
   120    60   131 1   
   121    60   132 1   
   122    60   133 1   
   123    61    72 1   
   124    62    63 2   
   125    63    64 1   
   126    63    71 1   
   127    64    65 ar  
   128    64    70 ar  
   129    65    66 ar  
   130    65   134 1   
   131    66    67 ar  
   132    66   135 1   
   133    67    68 1   
   134    67    69 ar  
   135    69    70 ar  
   136    69   136 1   
   137    70   137 1   
   138    71    72 2   
   139    71    76 1   
   140    72    73 1   
   141    73    74 1   
   142    74    75 1   
   143    74    76 2   
   144    75   138 1   
   145    75   139 1   
   146    75   140 1   
   147    76    77 1   
   148    77   141 1   
   149    77   142 1   
   150    77   143 1   
@<TRIPOS>SUBSTRUCTURE
     1 6ON         1 TEMP              0 ****  ****    0 ROOT
