@<TRIPOS>MOLECULE
6ON
  143   150     1     0     0
SMALL
No Charge or Current Charge


@<TRIPOS>ATOM
      1 C10        -24.8460    -4.3470   -34.8080 c3         1 6ON       0.155100
      2 O01        -20.0350     1.2120   -32.3580 o          1 6ON      -0.626100
      3 C02        -21.0050     1.9140   -32.6060 c          1 6ON       0.603600
      4 N03        -21.7080     1.8030   -33.7850 ns         1 6ON      -0.491900
      5 C04        -21.5140     0.7270   -34.7650 c3         1 6ON       0.098000
      6 C05        -22.0730    -0.6290   -34.2650 c3         1 6ON       0.129100
      7 O06        -23.4990    -0.5120   -34.0480 os         1 6ON      -0.446500
      8 C07        -24.3630    -0.6350   -35.2050 c3         1 6ON       0.144600
      9 C08        -24.4160    -2.1130   -35.6840 c3         1 6ON       0.143100
     10 O09        -24.8900    -2.9230   -34.5920 os         1 6ON      -0.441000
     11 C11        -25.1000    -5.0370   -33.4470 c3         1 6ON       0.138600
     12 O12        -23.9370    -4.8420   -32.6160 os         1 6ON      -0.449000
     13 C13        -24.1460    -5.0780   -31.2090 c3         1 6ON       0.145100
     14 C14        -22.8370    -4.7700   -30.4400 c3         1 6ON       0.150100
     15 O15        -22.5260    -3.3680   -30.5790 os         1 6ON      -0.470000
     16 C16        -21.4320    -2.9070   -29.7670 c3         1 6ON       0.150100
     17 C17        -21.1460    -1.4280   -30.1320 c3         1 6ON       0.145100
     18 O18        -20.2160    -0.8570   -29.1850 os         1 6ON      -0.449000
     19 C19        -20.7780    -0.5100   -27.9010 c3         1 6ON       0.138600
     20 C20        -19.6630     0.0570   -26.9860 c3         1 6ON       0.155100
     21 O21        -18.7350    -0.9860   -26.6010 os         1 6ON      -0.441000
     22 C22        -18.9060    -1.5800   -25.2880 c3         1 6ON       0.143100
     23 C23        -20.1800    -2.4610   -25.1920 c3         1 6ON       0.144600
     24 O24        -20.0720    -3.5600   -26.1180 os         1 6ON      -0.446500
     25 C25        -21.1560    -4.5060   -26.0570 c3         1 6ON       0.129100
     26 C26        -20.8790    -5.6490   -27.0630 c3         1 6ON       0.098000
     27 N27        -19.6310    -6.3760   -26.7960 ns         1 6ON      -0.491900
     28 C28        -19.4150    -7.1950   -25.7110 c          1 6ON       0.603600
     29 C29        -18.0030    -7.7700   -25.5990 c3         1 6ON      -0.132900
     30 C30        -17.1840    -7.0180   -24.5230 c3         1 6ON       0.107700
     31 C31        -15.8180    -7.6390   -24.2280 cc         1 6ON       0.395800
     32 N32        -15.3260    -8.7600   -24.7420 nd         1 6ON      -0.342000
     33 N33        -14.1320    -9.0380   -24.1070 nd         1 6ON      -0.352500
     34 C34        -13.9180    -8.1030   -23.1940 cc         1 6ON       0.414800
     35 C35        -12.6990    -8.0240   -22.3190 c3         1 6ON      -0.127900
     36 N36        -14.9440    -7.1880   -23.2650 na         1 6ON      -0.267800
     37 N37        -17.0550    -5.6110   -24.9480 n2         1 6ON      -0.571400
     38 C38        -16.2810    -4.7750   -24.3280 ce         1 6ON       0.552000
     39 C39        -15.6180    -3.6650   -25.0980 ca         1 6ON      -0.137900
     40 C40        -16.0180    -3.3680   -26.4240 ca         1 6ON      -0.065500
     41 C41        -15.3970    -2.3350   -27.1470 ca         1 6ON      -0.109500
     42 C42        -14.3590    -1.5950   -26.5650 ca         1 6ON       0.132000
     43 Cl         -13.5840    -0.3030   -27.4710 cl         1 6ON      -0.216500
     44 C44        -13.9350    -1.8900   -25.2610 ca         1 6ON      -0.109500
     45 C45        -14.5550    -2.9200   -24.5330 ca         1 6ON      -0.065500
     46 C46        -15.8870    -5.0130   -22.9300 cc         1 6ON      -0.199900
     47 C47        -15.1550    -6.0710   -22.4480 cd         1 6ON      -0.117700
     48 S48        -14.8080    -6.0510   -20.7220 ss         1 6ON       0.234500
     49 C49        -15.7230    -4.5340   -20.6270 cd         1 6ON      -0.207800
     50 C50        -15.8840    -3.8410   -19.2960 c3         1 6ON      -0.020300
     51 C51        -16.2280    -4.1330   -21.8500 cc         1 6ON      -0.058800
     52 C52        -17.0730    -2.9030   -22.0880 c3         1 6ON      -0.038800
     53 O53        -20.3020    -7.4750   -24.9160 o          1 6ON      -0.626100
     54 C54        -21.4870     3.0090   -31.6550 c3         1 6ON      -0.132900
     55 C55        -22.2540     2.4150   -30.4470 c3         1 6ON       0.107700
     56 C56        -22.6510     3.4590   -29.4050 cc         1 6ON       0.395800
     57 N57        -22.3240     4.7450   -29.4090 nd         1 6ON      -0.342000
     58 N58        -22.7620     5.3080   -28.2290 nd         1 6ON      -0.352500
     59 C59        -23.3280     4.3590   -27.5000 cc         1 6ON       0.414800
     60 C60        -23.9780     4.5850   -26.1640 c3         1 6ON      -0.127900
     61 N61        -23.2990     3.1860   -28.2220 na         1 6ON      -0.267800
     62 N62        -23.4290     1.6890   -30.9650 n2         1 6ON      -0.571400
     63 C63        -24.3750     1.2420   -30.1950 ce         1 6ON       0.552000
     64 C64        -25.7790     1.1560   -30.7340 ca         1 6ON      -0.137900
     65 C65        -26.8860     1.0010   -29.8660 ca         1 6ON      -0.065500
     66 C66        -28.1940     0.9370   -30.3760 ca         1 6ON      -0.109500
     67 C67        -28.4170     1.0380   -31.7570 ca         1 6ON       0.132000
     68 Cl2        -30.0560     0.9570   -32.3910 cl         1 6ON      -0.216500
     69 C69        -27.3350     1.2100   -32.6300 ca         1 6ON      -0.109500
     70 C70        -26.0250     1.2760   -32.1240 ca         1 6ON      -0.065500
     71 C71        -24.1460     1.0050   -28.7590 cc         1 6ON      -0.199900
     72 C72        -23.7400     1.9210   -27.8170 cd         1 6ON      -0.117700
     73 S73        -23.6260     1.3350   -26.1600 ss         1 6ON       0.234500
     74 C74        -24.1100    -0.2590   -26.7650 cd         1 6ON      -0.207800
     75 C75        -24.2370    -1.4160   -25.8070 c3         1 6ON      -0.020300
     76 C76        -24.3420    -0.2710   -28.1270 cc         1 6ON      -0.058800
     77 C77        -24.7770    -1.4880   -28.9100 c3         1 6ON      -0.038800
     78 H101       -25.6190    -4.6520   -35.5250 h1         1 6ON       0.046950
     79 H102       -23.8680    -4.6640   -35.1960 h1         1 6ON       0.046950
     80 H031       -22.5100     2.4110   -33.8930 hn         1 6ON       0.323500
     81 H042       -20.4400     0.6190   -34.9660 h1         1 6ON       0.057700
     82 H041       -22.0010     1.0080   -35.7080 h1         1 6ON       0.057700
     83 H051       -21.8330    -1.4180   -34.9880 h1         1 6ON       0.046200
     84 H052       -21.5740    -0.8880   -33.3230 h1         1 6ON       0.046200
     85 H072       -24.0180     0.0050   -36.0280 h1         1 6ON       0.033950
     86 H071       -25.3810    -0.3170   -34.9450 h1         1 6ON       0.033950
     87 H082       -25.0970    -2.1890   -36.5420 h1         1 6ON       0.036450
     88 H081       -23.4220    -2.4380   -36.0150 h1         1 6ON       0.036450
     89 H112       -25.9970    -4.6010   -32.9860 h1         1 6ON       0.031450
     90 H111       -25.2820    -6.1090   -33.6040 h1         1 6ON       0.031450
     91 H132       -24.9480    -4.4370   -30.8200 h1         1 6ON       0.048700
     92 H131       -24.4280    -6.1240   -31.0310 h1         1 6ON       0.048700
     93 H141       -22.9870    -5.0270   -29.3830 h1         1 6ON       0.034700
     94 H142       -22.0220    -5.3930   -30.8310 h1         1 6ON       0.034700
     95 H161       -20.5290    -3.5040   -29.9510 h1         1 6ON       0.034700
     96 H162       -21.6950    -2.9970   -28.7060 h1         1 6ON       0.034700
     97 H172       -22.0840    -0.8580   -30.1460 h1         1 6ON       0.048700
     98 H171       -20.7200    -1.3960   -31.1420 h1         1 6ON       0.048700
     99 H191       -21.5370     0.2680   -28.0320 h1         1 6ON       0.031450
    100 H192       -21.2630    -1.3690   -27.4270 h1         1 6ON       0.031450
    101 H201       -19.1340     0.8460   -27.5360 h1         1 6ON       0.046950
    102 H202       -20.1200     0.5250   -26.1040 h1         1 6ON       0.046950
    103 H222       -18.0390    -2.2070   -25.0490 h1         1 6ON       0.036450
    104 H221       -18.9550    -0.7970   -24.5200 h1         1 6ON       0.036450
    105 H232       -20.2540    -2.8420   -24.1650 h1         1 6ON       0.033950
    106 H231       -21.0780    -1.8590   -25.3810 h1         1 6ON       0.033950
    107 H252       -22.1060    -4.0230   -26.3210 h1         1 6ON       0.046200
    108 H251       -21.2530    -4.9220   -25.0460 h1         1 6ON       0.046200
    109 H262       -21.7150    -6.3600   -27.0370 h1         1 6ON       0.057700
    110 H261       -20.8280    -5.2320   -28.0760 h1         1 6ON       0.057700
    111 H271       -18.8250    -6.1730   -27.3750 hn         1 6ON       0.323500
    112 H291       -18.0840    -8.8220   -25.3060 hc         1 6ON       0.080700
    113 H292       -17.4790    -7.6820   -26.5570 hc         1 6ON       0.080700
    114 H301       -17.7530    -7.0660   -23.5830 h1         1 6ON       0.089200
    115 H353       -11.8930    -8.6510   -22.7160 hc         1 6ON       0.064867
    116 H351       -12.3250    -6.9960   -22.2610 hc         1 6ON       0.064867
    117 H352       -12.9270    -8.3710   -21.3050 hc         1 6ON       0.064867
    118 H401       -16.8290    -3.9200   -26.8960 ha         1 6ON       0.134000
    119 H411       -15.7260    -2.1060   -28.1570 ha         1 6ON       0.133250
    120 H441       -13.1230    -1.3210   -24.8150 ha         1 6ON       0.133250
    121 H451       -14.1980    -3.1330   -23.5270 ha         1 6ON       0.134000
    122 H503       -15.2890    -4.3280   -18.5150 hc         1 6ON       0.050533
    123 H502       -15.5610    -2.7950   -19.3550 hc         1 6ON       0.050533
    124 H501       -16.9310    -3.8530   -18.9720 hc         1 6ON       0.050533
    125 H521       -17.9290    -3.1340   -22.7320 hc         1 6ON       0.053033
    126 H522       -17.4740    -2.5010   -21.1510 hc         1 6ON       0.053033
    127 H523       -16.4890    -2.1090   -22.5680 hc         1 6ON       0.053033
    128 H542       -20.6070     3.5440   -31.2800 hc         1 6ON       0.080700
    129 H541       -22.1520     3.7020   -32.1830 hc         1 6ON       0.080700
    130 H551       -21.5790     1.7100   -29.9420 h1         1 6ON       0.089200
    131 H603       -24.1630     5.6520   -25.9970 hc         1 6ON       0.064867
    132 H601       -24.9420     4.0670   -26.1050 hc         1 6ON       0.064867
    133 H602       -23.3350     4.2260   -25.3530 hc         1 6ON       0.064867
    134 H651       -26.7460     0.9350   -28.7890 ha         1 6ON       0.134000
    135 H661       -29.0360     0.8130   -29.7000 ha         1 6ON       0.133250
    136 H691       -27.5090     1.2930   -33.7000 ha         1 6ON       0.133250
    137 H701       -25.2010     1.4050   -32.8230 ha         1 6ON       0.134000
    138 H752       -24.0100    -1.1140   -24.7770 hc         1 6ON       0.050533
    139 H751       -25.2550    -1.8240   -25.8170 hc         1 6ON       0.050533
    140 H753       -23.5490    -2.2240   -26.0750 hc         1 6ON       0.050533
    141 H773       -24.3250    -2.4000   -28.5040 hc         1 6ON       0.053033
    142 H771       -25.8650    -1.6090   -28.8680 hc         1 6ON       0.053033
    143 H772       -24.4850    -1.4270   -29.9650 hc         1 6ON       0.053033
@<TRIPOS>BOND
     1     1    10 1   
     2     1    11 1   
     3     1    78 1   
     4     1    79 1   
     5     2     3 2   
     6     3     4 1   
     7     3    54 1   
     8     4     5 1   
     9     4    80 1   
    10     5     6 1   
    11     5    81 1   
    12     5    82 1   
    13     6     7 1   
    14     6    83 1   
    15     6    84 1   
    16     7     8 1   
    17     8     9 1   
    18     8    85 1   
    19     8    86 1   
    20     9    10 1   
    21     9    87 1   
    22     9    88 1   
    23    11    12 1   
    24    11    89 1   
    25    11    90 1   
    26    12    13 1   
    27    13    14 1   
    28    13    91 1   
    29    13    92 1   
    30    14    15 1   
    31    14    93 1   
    32    14    94 1   
    33    15    16 1   
    34    16    17 1   
    35    16    95 1   
    36    16    96 1   
    37    17    18 1   
    38    17    97 1   
    39    17    98 1   
    40    18    19 1   
    41    19    20 1   
    42    19    99 1   
    43    19   100 1   
    44    20    21 1   
    45    20   101 1   
    46    20   102 1   
    47    21    22 1   
    48    22    23 1   
    49    22   103 1   
    50    22   104 1   
    51    23    24 1   
    52    23   105 1   
    53    23   106 1   
    54    24    25 1   
    55    25    26 1   
    56    25   107 1   
    57    25   108 1   
    58    26    27 1   
    59    26   109 1   
    60    26   110 1   
    61    27    28 1   
    62    27   111 1   
    63    28    29 1   
    64    28    53 2   
    65    29    30 1   
    66    29   112 1   
    67    29   113 1   
    68    30    31 1   
    69    30    37 1   
    70    30   114 1   
    71    31    32 2   
    72    31    36 1   
    73    32    33 1   
    74    33    34 2   
    75    34    35 1   
    76    34    36 1   
    77    35   115 1   
    78    35   116 1   
    79    35   117 1   
    80    36    47 1   
    81    37    38 2   
    82    38    39 1   
    83    38    46 1   
    84    39    40 ar  
    85    39    45 ar  
    86    40    41 ar  
    87    40   118 1   
    88    41    42 ar  
    89    41   119 1   
    90    42    43 1   
    91    42    44 ar  
    92    44    45 ar  
    93    44   120 1   
    94    45   121 1   
    95    46    47 2   
    96    46    51 1   
    97    47    48 1   
    98    48    49 1   
    99    49    50 1   
   100    49    51 2   
   101    50   122 1   
   102    50   123 1   
   103    50   124 1   
   104    51    52 1   
   105    52   125 1   
   106    52   126 1   
   107    52   127 1   
   108    54    55 1   
   109    54   128 1   
   110    54   129 1   
   111    55    56 1   
   112    55    62 1   
   113    55   130 1   
   114    56    57 2   
   115    56    61 1   
   116    57    58 1   
   117    58    59 2   
   118    59    60 1   
   119    59    61 1   
   120    60   131 1   
   121    60   132 1   
   122    60   133 1   
   123    61    72 1   
   124    62    63 2   
   125    63    64 1   
   126    63    71 1   
   127    64    65 ar  
   128    64    70 ar  
   129    65    66 ar  
   130    65   134 1   
   131    66    67 ar  
   132    66   135 1   
   133    67    68 1   
   134    67    69 ar  
   135    69    70 ar  
   136    69   136 1   
   137    70   137 1   
   138    71    72 2   
   139    71    76 1   
   140    72    73 1   
   141    73    74 1   
   142    74    75 1   
   143    74    76 2   
   144    75   138 1   
   145    75   139 1   
   146    75   140 1   
   147    76    77 1   
   148    77   141 1   
   149    77   142 1   
   150    77   143 1   
@<TRIPOS>SUBSTRUCTURE
     1 6ON         1 TEMP              0 ****  ****    0 ROOT
