@<TRIPOS>MOLECULE
6OR
   16    16     1     0     0
SMALL
No Charge or Current Charge


@<TRIPOS>ATOM
      1 C01          0.1410     1.1690     0.0650 ca         1 6OR       0.027000
      2 C02          0.8940    -0.0200    -0.0190 ca         1 6OR      -0.241500
      3 C03          0.2270    -1.2620    -0.0250 ca         1 6OR       0.027000
      4 C04         -1.1770    -1.3180     0.0400 ca         1 6OR       0.025500
      5 C05         -1.9290    -0.1250     0.1160 ca         1 6OR       0.157100
      6 C06         -1.2630     1.1170     0.1290 ca         1 6OR       0.025500
      7 Cl7         -2.1790     2.6240     0.2310 cl         1 6OR      -0.230500
      8 O08         -3.2990    -0.1670     0.1790 oh         1 6OR      -0.526100
      9 Cl9         -1.9720    -2.8960     0.0270 cl         1 6OR      -0.230500
     10 S10          2.7340     0.0480    -0.0910 s6         1 6OR       1.263100
     11 O11          3.0710     0.0040     1.3390 o          1 6OR      -0.688533
     12 O12          3.0560    -1.1630    -0.8600 o          1 6OR      -0.688533
     13 O13          2.9680     1.3340    -0.7640 o          1 6OR      -0.688533
     14 H011         0.6380     2.1370     0.0820 ha         1 6OR       0.149500
     15 H031         0.7920    -2.1900    -0.0770 ha         1 6OR       0.149500
     16 H081        -3.6230     0.7590     0.2280 ho         1 6OR       0.470000
@<TRIPOS>BOND
     1     1     2 ar  
     2     1     6 ar  
     3     1    14 1   
     4     2     3 ar  
     5     2    10 1   
     6     3     4 ar  
     7     3    15 1   
     8     4     5 ar  
     9     4     9 1   
    10     5     6 ar  
    11     5     8 1   
    12     6     7 1   
    13     8    16 1   
    14    10    11 1   
    15    10    12 1   
    16    10    13 1   
@<TRIPOS>SUBSTRUCTURE
     1 6OR         1 TEMP              0 ****  ****    0 ROOT
