@<TRIPOS>MOLECULE
6OR
   16    16     1     0     0
SMALL
abcg2


@<TRIPOS>ATOM
      1 C01          0.1500     1.1630     0.0550 ca         1 6OR       0.027000
      2 C02          0.8720    -0.0160    -0.0330 ca         1 6OR      -0.241500
      3 C03          0.2150    -1.2370    -0.0470 ca         1 6OR       0.027000
      4 C04         -1.1650    -1.2710     0.0320 ca         1 6OR       0.025500
      5 C05         -1.9240    -0.1030     0.1260 ca         1 6OR       0.157100
      6 C06         -1.2290     1.1080     0.1340 ca         1 6OR       0.025500
      7 CL7         -2.1470     2.5730     0.2390 cl         1 6OR      -0.230500
      8 O08         -3.2490    -0.2070     0.1940 oh         1 6OR      -0.526100
      9 CL9         -1.9950    -2.7830     0.0040 cl         1 6OR      -0.230500
     10 S10          2.6640     0.0410    -0.0690 s6         1 6OR       1.263100
     11 O11          3.0710     0.0570     1.3440 o          1 6OR      -0.688533
     12 O12          3.0720    -1.1810    -0.7810 o          1 6OR      -0.688533
     13 O13          2.9910     1.2840    -0.7860 o          1 6OR      -0.688533
     14 H011         0.6480     2.1230     0.0520 ha         1 6OR       0.149500
     15 H031         0.7680    -2.1630    -0.1310 ha         1 6OR       0.149500
     16 H081        -3.6650     0.6620     0.2670 ho         1 6OR       0.470000
@<TRIPOS>BOND
     1     1     2 ar  
     2     1     6 ar  
     3     1    14 1   
     4     2     3 ar  
     5     2    10 1   
     6     3     4 ar  
     7     3    15 1   
     8     4     5 ar  
     9     4     9 1   
    10     5     6 ar  
    11     5     8 1   
    12     6     7 1   
    13     8    16 1   
    14    10    11 1   
    15    10    12 1   
    16    10    13 1   
@<TRIPOS>SUBSTRUCTURE
     1 6OR         1 TEMP              0 ****  ****    0 ROOT
