@<TRIPOS>MOLECULE
6OS
   32    34     1     0     0
SMALL
No Charge or Current Charge


@<TRIPOS>ATOM
      1 C2          -3.5750    -1.5230     0.8350 ca         1 6OS       0.181900
      2 C4          -1.7070    -0.3040     0.3300 ca         1 6OS       0.121500
      3 C5          -2.4880     0.6320    -0.3010 ca         1 6OS      -0.102600
      4 C6          -3.8830     0.4240    -0.3280 ca         1 6OS       0.451900
      5 O3           3.7850    -1.0580    -1.4010 oh         1 6OS      -0.654000
      6 C3           2.5990    -0.3860    -0.9550 c5         1 6OS       0.149500
      7 C7           1.5310    -1.3990    -0.3970 c5         1 6OS       0.132300
      8 O2           2.1920    -2.5150     0.2120 oh         1 6OS      -0.644000
      9 C9           2.8700     0.5210     0.2300 c2         1 6OS      -0.115400
     10 C10          4.0970     1.4070     0.3320 c3         1 6OS       0.212800
     11 O5           3.7050     2.7560     0.6190 oh         1 6OS      -0.659000
     12 C11          1.8690     0.4490     1.1130 c2         1 6OS      -0.203200
     13 C1           0.7920    -0.5260     0.6810 c5         1 6OS       0.112500
     14 N9          -0.4230     0.1440     0.2020 na         1 6OS      -0.278300
     15 N3          -2.2280    -1.4020     0.9120 nb         1 6OS      -0.215000
     16 N1          -4.4350    -0.6600     0.2390 nb         1 6OS      -0.304000
     17 C8          -0.4690     1.3490    -0.5140 cc         1 6OS       0.400700
     18 N7          -1.7330     1.6790    -0.8400 nd         1 6OS      -0.554100
     19 N6          -4.7420     1.2880    -0.9300 nv         1 6OS      -1.065900
     20 H1          -4.0130    -2.4060     1.2990 h5         1 6OS       0.047100
     21 H2           3.6340    -1.3190    -2.3380 ho         1 6OS       0.454000
     22 H3           2.1670     0.2040    -1.7770 h1         1 6OS       0.053700
     23 H4           0.8430    -1.7420    -1.1820 h1         1 6OS       0.066700
     24 H5           3.1330    -2.4040    -0.0650 ho         1 6OS       0.463000
     25 H6           4.7530     1.0230     1.1250 h1         1 6OS       0.036700
     26 H7           4.6610     1.3710    -0.6100 h1         1 6OS       0.036700
     27 H8           4.5320     3.2830     0.6770 ho         1 6OS       0.451000
     28 H9           1.8390     1.0280     2.0370 ha         1 6OS       0.221000
     29 H10          0.5120    -1.1690     1.5280 h1         1 6OS       0.120700
     30 H11          0.4220     1.9150    -0.7600 h5         1 6OS       0.069800
     31 H12         -4.3280     1.9830    -1.5480 hn         1 6OS       0.506500
     32 H13         -5.6670     0.9490    -1.1820 hn         1 6OS       0.506500
@<TRIPOS>BOND
     1     1    15 ar  
     2     1    16 ar  
     3     1    20 1   
     4     2     3 ar  
     5     2    14 1   
     6     2    15 ar  
     7     3     4 ar  
     8     3    18 1   
     9     4    16 ar  
    10     4    19 1   
    11     5     6 1   
    12     5    21 1   
    13     6     7 1   
    14     6     9 1   
    15     6    22 1   
    16     7     8 1   
    17     7    13 1   
    18     7    23 1   
    19     8    24 1   
    20     9    10 1   
    21     9    12 2   
    22    10    11 1   
    23    10    25 1   
    24    10    26 1   
    25    11    27 1   
    26    12    13 1   
    27    12    28 1   
    28    13    14 1   
    29    13    29 1   
    30    14    17 1   
    31    17    18 2   
    32    17    30 1   
    33    19    31 1   
    34    19    32 1   
@<TRIPOS>SUBSTRUCTURE
     1 6OS         1 TEMP              0 ****  ****    0 ROOT
