@<TRIPOS>MOLECULE
6OS
   32    34     1     0     0
SMALL
abcg2


@<TRIPOS>ATOM
      1 C2          -3.3590    -1.6050     0.6740 ca         1 6OS       0.181900
      2 C4          -1.6640    -0.2660     0.2820 ca         1 6OS       0.121500
      3 C5          -2.4640     0.6530    -0.3790 ca         1 6OS      -0.102600
      4 C6          -3.8320     0.3350    -0.4710 ca         1 6OS       0.451900
      5 O3           3.6840    -1.1450    -1.2530 oh         1 6OS      -0.654000
      6 C3           2.5310    -0.4210    -0.8980 c5         1 6OS       0.149500
      7 C7           1.4520    -1.3120    -0.2380 c5         1 6OS       0.132300
      8 O2           2.0560    -2.3630     0.4630 oh         1 6OS      -0.644000
      9 C9           2.8310     0.5950     0.1750 c2         1 6OS      -0.115400
     10 C10          4.0480     1.4440     0.0970 c3         1 6OS       0.212800
     11 O5           4.0280     2.4030     1.1200 oh         1 6OS      -0.659000
     12 C11          1.8620     0.6340     1.0830 c2         1 6OS      -0.203200
     13 C1           0.7900    -0.3750     0.7890 c5         1 6OS       0.112500
     14 N9          -0.4070     0.2600     0.2510 na         1 6OS      -0.278300
     15 N3          -2.0600    -1.4150     0.8280 nb         1 6OS      -0.215000
     16 N1          -4.2450    -0.8160     0.0710 nb         1 6OS      -0.304000
     17 C8          -0.5090     1.4440    -0.4240 cc         1 6OS       0.400700
     18 N7          -1.7210     1.7180    -0.8150 nd         1 6OS      -0.554100
     19 N6          -4.7200     1.1330    -1.0650 nv         1 6OS      -1.065900
     20 H1          -3.7610    -2.5230     1.0910 h5         1 6OS       0.047100
     21 H2           3.5740    -1.4900    -2.1450 ho         1 6OS       0.454000
     22 H3           2.1160     0.0920    -1.7760 h1         1 6OS       0.053700
     23 H4           0.7260    -1.6890    -0.9700 h1         1 6OS       0.066700
     24 H5           2.8970    -2.5510     0.0260 ho         1 6OS       0.463000
     25 H6           4.9320     0.7960     0.1590 h1         1 6OS       0.036700
     26 H7           4.0840     1.9040    -0.9020 h1         1 6OS       0.036700
     27 H8           4.8750     2.8590     1.1210 ho         1 6OS       0.451000
     28 H9           1.7980     1.3130     1.9220 ha         1 6OS       0.221000
     29 H10          0.4700    -0.9310     1.6740 h1         1 6OS       0.120700
     30 H11          0.3510     2.0730    -0.5920 h5         1 6OS       0.069800
     31 H12         -4.4360     1.9850    -1.5140 hn         1 6OS       0.506500
     32 H13         -5.6830     0.8520    -1.1420 hn         1 6OS       0.506500
@<TRIPOS>BOND
     1     1    15 ar  
     2     1    16 ar  
     3     1    20 1   
     4     2     3 ar  
     5     2    14 1   
     6     2    15 ar  
     7     3     4 ar  
     8     3    18 1   
     9     4    16 ar  
    10     4    19 1   
    11     5     6 1   
    12     5    21 1   
    13     6     7 1   
    14     6     9 1   
    15     6    22 1   
    16     7     8 1   
    17     7    13 1   
    18     7    23 1   
    19     8    24 1   
    20     9    10 1   
    21     9    12 2   
    22    10    11 1   
    23    10    25 1   
    24    10    26 1   
    25    11    27 1   
    26    12    13 1   
    27    12    28 1   
    28    13    14 1   
    29    13    29 1   
    30    14    17 1   
    31    17    18 2   
    32    17    30 1   
    33    19    31 1   
    34    19    32 1   
@<TRIPOS>SUBSTRUCTURE
     1 6OS         1 TEMP              0 ****  ****    0 ROOT
