@<TRIPOS>MOLECULE
6OT
   17    17     1     0     0
SMALL
bcc


@<TRIPOS>ATOM
      1 N12         -2.7760     0.2800    -1.5160 n8         1 6OT      -0.900700
      2 C01          1.4290    -1.1820     0.0170 ca         1 6OT       0.010900
      3 C02          2.1040     0.0260    -0.0240 ca         1 6OT      -0.067000
      4 C03          1.3650     1.2000    -0.0430 ca         1 6OT       0.010900
      5 C04         -0.0180     1.1870    -0.0220 ca         1 6OT      -0.024000
      6 C05         -0.6540    -0.0450     0.0170 ca         1 6OT      -0.250500
      7 C06          0.0430    -1.2400     0.0420 ca         1 6OT      -0.024000
      8 CL8          2.1960     2.7110    -0.0890 cl         1 6OT      -0.086400
      9 S09         -2.4320    -0.0750     0.0540 sy         1 6OT       1.274200
     10 O10         -2.9070     1.0520     0.8390 o          1 6OT      -0.607800
     11 O11         -2.8340    -1.4180     0.4420 o          1 6OT      -0.607800
     12 H121        -2.6380    -0.5040    -2.1440 hn         1 6OT       0.423800
     13 H122        -3.7110     0.6620    -1.6190 hn         1 6OT       0.423800
     14 H021         3.1840     0.0540    -0.0400 ha         1 6OT       0.166000
     15 H041        -0.5800     2.1110    -0.0370 ha         1 6OT       0.174000
     16 H061        -0.4690    -2.1910     0.0820 ha         1 6OT       0.174000
     17 CL7          2.3330    -2.6500     0.0440 cl         1 6OT      -0.086400
@<TRIPOS>BOND
     1     1     9 1   
     2     1    12 1   
     3     1    13 1   
     4     2     3 ar  
     5     2     7 ar  
     6     2    17 1   
     7     3     4 ar  
     8     3    14 1   
     9     4     5 ar  
    10     4     8 1   
    11     5     6 ar  
    12     5    15 1   
    13     6     7 ar  
    14     6     9 1   
    15     7    16 1   
    16     9    10 2   
    17     9    11 2   
@<TRIPOS>SUBSTRUCTURE
     1 6OT         1 TEMP              0 ****  ****    0 ROOT
