@<TRIPOS>MOLECULE
6OT
   17    17     1     0     0
SMALL
No Charge or Current Charge


@<TRIPOS>ATOM
      1 N12         -2.7860    -0.0120    -1.6180 n8         1 6OT      -1.011100
      2 C01          1.5010    -1.1790    -0.0290 ca         1 6OT       0.102500
      3 C02          2.1740     0.0530     0.0210 ca         1 6OT      -0.049000
      4 C03          1.4410     1.2500     0.0560 ca         1 6OT       0.102500
      5 C04          0.0350     1.2210     0.0430 ca         1 6OT      -0.006000
      6 C05         -0.6450    -0.0160    -0.0050 ca         1 6OT      -0.250500
      7 C06          0.0950    -1.2180    -0.0430 ca         1 6OT      -0.006000
      8 Cl8          2.2860     2.7930     0.1160 cl         1 6OT      -0.178000
      9 S09         -2.4380    -0.0600    -0.0260 sy         1 6OT       1.132600
     10 O10         -2.9970     1.1890     0.4850 o          1 6OT      -0.537000
     11 O11         -2.9340    -1.3680     0.3950 o          1 6OT      -0.537000
     12 H121        -3.4060    -0.8160    -1.6930 hn         1 6OT       0.479000
     13 H122        -3.4450     0.7640    -1.6370 hn         1 6OT       0.479000
     14 H021         3.2600     0.0790     0.0310 ha         1 6OT       0.148000
     15 H041        -0.5170     2.1580     0.0680 ha         1 6OT       0.156000
     16 H061        -0.4100    -2.1810    -0.0850 ha         1 6OT       0.156000
     17 Cl7          2.4210    -2.6790    -0.0760 cl         1 6OT      -0.178000
@<TRIPOS>BOND
     1     1     9 1   
     2     1    12 1   
     3     1    13 1   
     4     2     3 ar  
     5     2     7 ar  
     6     2    17 1   
     7     3     4 ar  
     8     3    14 1   
     9     4     5 ar  
    10     4     8 1   
    11     5     6 ar  
    12     5    15 1   
    13     6     7 ar  
    14     6     9 1   
    15     7    16 1   
    16     9    10 2   
    17     9    11 2   
@<TRIPOS>SUBSTRUCTURE
     1 6OT         1 TEMP              0 ****  ****    0 ROOT
