@<TRIPOS>MOLECULE
6OU
  124   123     1     0     0
SMALL
No Charge or Current Charge


@<TRIPOS>ATOM
      1 C01         15.6760     7.8110    -2.6570 c3         1 6OU      -0.088100
      2 C02         15.1380     6.5830    -1.8980 c3         1 6OU      -0.075400
      3 C03         13.6020     6.5990    -1.7300 c3         1 6OU      -0.075400
      4 C04         13.0650     5.3700    -0.9660 c3         1 6OU      -0.074400
      5 C05         11.5290     5.3830    -0.8000 c3         1 6OU      -0.074400
      6 C06         10.9930     4.1470    -0.0440 c3         1 6OU      -0.074400
      7 C07          9.4550     4.1500     0.1110 c3         1 6OU      -0.074400
      8 C08          8.9220     2.9000     0.8450 c3         1 6OU      -0.074400
      9 C09          7.3840     2.8920     0.9900 c3         1 6OU      -0.075400
     10 C10          6.8530     1.6250     1.6950 c3         1 6OU      -0.074400
     11 C11          5.3140     1.6010     1.8210 c3         1 6OU      -0.075400
     12 C12          4.7840     0.3130     2.4890 c3         1 6OU      -0.072400
     13 C13          3.2430     0.2720     2.5850 c3         1 6OU      -0.083400
     14 C14          2.7130    -1.0340     3.2150 c3         1 6OU      -0.057400
     15 C15          1.1690    -1.0960     3.2710 c3         1 6OU      -0.143400
     16 C16          0.6790    -2.4590     3.7620 c          1 6OU       0.629100
     17 O17          0.5640    -2.7550     4.9450 o          1 6OU      -0.511000
     18 O18          0.3680    -3.2910     2.7220 os         1 6OU      -0.415100
     19 C19         -0.1610    -4.5930     3.0180 c3         1 6OU       0.176600
     20 C20         -0.4230    -5.3880     1.7080 c3         1 6OU       0.151300
     21 C21          0.8370    -6.0060     1.0060 c3         1 6OU       0.213600
     22 O22          1.3600    -5.2130    -0.0840 os         1 6OU      -0.561400
     23 P23          2.5310    -4.1160     0.0890 p5         1 6OU       1.380800
     24 O24          3.3920    -4.0570    -1.1290 o          1 6OU      -0.830500
     25 O25          3.3540    -4.3910     1.3040 o          1 6OU      -0.830500
     26 O26          1.6370    -2.7880     0.2650 os         1 6OU      -0.569400
     27 C27          0.8880    -2.1940    -0.8080 c3         1 6OU       0.218600
     28 C28          1.7660    -1.1710    -1.6020 c3         1 6OU       0.145800
     29 N29          2.6790    -1.7690    -2.6050 n8         1 6OU      -0.981200
     30 O30         -1.2130    -4.5840     0.7940 os         1 6OU      -0.417100
     31 C31         -1.8160    -5.1870    -0.2780 c          1 6OU       0.598100
     32 O32         -1.8550    -6.3960    -0.4690 o          1 6OU      -0.515000
     33 C33         -2.5650    -4.1740    -1.1460 c3         1 6OU      -0.141400
     34 C34         -4.0470    -4.0530    -0.7200 c3         1 6OU      -0.067400
     35 C35         -4.8340    -3.0260    -1.5630 c3         1 6OU      -0.076400
     36 C36         -6.3240    -2.9370    -1.1700 c3         1 6OU      -0.074400
     37 C37         -7.1080    -1.9010    -2.0050 c3         1 6OU      -0.075400
     38 C38         -8.6080    -1.8410    -1.6390 c3         1 6OU      -0.072400
     39 C39         -9.3910    -0.7970    -2.4610 c3         1 6OU      -0.045200
     40 C40        -10.8660    -0.7820    -2.1070 c2         1 6OU      -0.209200
     41 C41        -11.4750     0.0230    -1.2180 c2         1 6OU      -0.223200
     42 C42        -10.8220     1.0740    -0.3400 c3         1 6OU      -0.042200
     43 C43        -11.0210     2.4990    -0.8960 c3         1 6OU      -0.072400
     44 C44        -10.3840     3.5910    -0.0090 c3         1 6OU      -0.075400
     45 C45        -10.5990     5.0180    -0.5600 c3         1 6OU      -0.074400
     46 C46         -9.9780     6.1120     0.3370 c3         1 6OU      -0.074400
     47 C47        -10.2030     7.5390    -0.2090 c3         1 6OU      -0.075400
     48 C48         -9.5900     8.6340     0.6900 c3         1 6OU      -0.075400
     49 C49         -9.8190    10.0580     0.1470 c3         1 6OU      -0.088100
     50 H1          16.7680     7.7560    -2.7500 hc         1 6OU       0.030033
     51 H2          15.2490     7.8620    -3.6660 hc         1 6OU       0.030033
     52 H3          15.4240     8.7370    -2.1260 hc         1 6OU       0.030033
     53 H4          15.4360     5.6740    -2.4350 hc         1 6OU       0.036200
     54 H5          15.6120     6.5400    -0.9090 hc         1 6OU       0.036200
     55 H6          13.3080     7.5120    -1.1970 hc         1 6OU       0.036700
     56 H7          13.1330     6.6420    -2.7210 hc         1 6OU       0.036700
     57 H8          13.3610     4.4570    -1.4990 hc         1 6OU       0.036200
     58 H9          13.5340     5.3280     0.0250 hc         1 6OU       0.036200
     59 H10         11.2320     6.2920    -0.2610 hc         1 6OU       0.036700
     60 H11         11.0600     5.4300    -1.7910 hc         1 6OU       0.036700
     61 H12         11.2980     3.2390    -0.5790 hc         1 6OU       0.036200
     62 H13         11.4550     4.1040     0.9500 hc         1 6OU       0.036200
     63 H14          9.1490     5.0500     0.6590 hc         1 6OU       0.036200
     64 H15          8.9930     4.2070    -0.8830 hc         1 6OU       0.036200
     65 H16          9.2360     2.0020     0.2990 hc         1 6OU       0.036200
     66 H17          9.3780     2.8450     1.8420 hc         1 6OU       0.036200
     67 H18          7.0690     3.7790     1.5540 hc         1 6OU       0.036200
     68 H19          6.9290     2.9660    -0.0060 hc         1 6OU       0.036200
     69 H20          7.1810     0.7390     1.1360 hc         1 6OU       0.035700
     70 H21          7.2980     1.5550     2.6960 hc         1 6OU       0.035700
     71 H22          4.9850     2.4720     2.4010 hc         1 6OU       0.035200
     72 H23          4.8710     1.6940     0.8210 hc         1 6OU       0.035200
     73 H24          5.1300    -0.5560     1.9170 hc         1 6OU       0.034700
     74 H25          5.2110     0.2260     3.4960 hc         1 6OU       0.034700
     75 H26          2.8930     1.1280     3.1770 hc         1 6OU       0.040700
     76 H27          2.8190     0.3830     1.5790 hc         1 6OU       0.040700
     77 H28          3.0840    -1.8850     2.6310 hc         1 6OU       0.045200
     78 H29          3.1180    -1.1430     4.2280 hc         1 6OU       0.045200
     79 H30          0.8000    -0.3150     3.9450 hc         1 6OU       0.086200
     80 H31          0.7950    -0.9360     2.2530 hc         1 6OU       0.086200
     81 H32          0.5330    -5.1610     3.6510 h1         1 6OU       0.053700
     82 H33         -1.1090    -4.4980     3.5640 h1         1 6OU       0.053700
     83 H34         -1.0270    -6.2470     2.0300 h1         1 6OU       0.049700
     84 H35          1.6090    -6.1990     1.7630 h1         1 6OU       0.034200
     85 H36          0.5510    -6.9920     0.6160 h1         1 6OU       0.034200
     86 H38          0.4900    -2.9580    -1.4900 h1         1 6OU       0.020200
     87 H39          0.0310    -1.6540    -0.3860 h1         1 6OU       0.020200
     88 H40          1.1050    -0.4710    -2.1320 h1         1 6OU       0.016700
     89 H41          2.3670    -0.5890    -0.8900 h1         1 6OU       0.016700
     90 H42          3.1510    -2.5660    -2.1380 hn         1 6OU       0.379500
     91 H43          2.1190    -2.2340    -3.3280 hn         1 6OU       0.379500
     92 H45         -2.1010    -3.1880    -1.0280 hc         1 6OU       0.071700
     93 H46         -2.5190    -4.4980    -2.1930 hc         1 6OU       0.071700
     94 H47         -4.5270    -5.0370    -0.8060 hc         1 6OU       0.050700
     95 H48         -4.0970    -3.7660     0.3390 hc         1 6OU       0.050700
     96 H49         -4.3710    -2.0370    -1.4510 hc         1 6OU       0.036700
     97 H50         -4.7580    -3.2970    -2.6240 hc         1 6OU       0.036700
     98 H51         -6.7880    -3.9240    -1.2920 hc         1 6OU       0.038700
     99 H52         -6.4030    -2.6760    -0.1060 hc         1 6OU       0.038700
    100 H53         -6.6610    -0.9100    -1.8610 hc         1 6OU       0.036700
    101 H54         -7.0080    -2.1470    -3.0700 hc         1 6OU       0.036700
    102 H55         -9.0570    -2.8300    -1.7950 hc         1 6OU       0.039200
    103 H56         -8.7110    -1.6070    -0.5720 hc         1 6OU       0.039200
    104 H57         -8.9440     0.1920    -2.3030 hc         1 6OU       0.044200
    105 H58         -9.2720    -1.0140    -3.5300 hc         1 6OU       0.044200
    106 H59        -11.4590    -1.5070    -2.6690 ha         1 6OU       0.164000
    107 H60        -12.5530    -0.0640    -1.0670 ha         1 6OU       0.162000
    108 H61        -11.2430     1.0200     0.6720 hc         1 6OU       0.044200
    109 H62         -9.7480     0.8810    -0.2300 hc         1 6OU       0.044200
    110 H63        -10.5890     2.5530    -1.9040 hc         1 6OU       0.038200
    111 H64        -12.0950     2.6970    -0.9970 hc         1 6OU       0.038200
    112 H65        -10.8080     3.5270     1.0010 hc         1 6OU       0.037700
    113 H66         -9.3070     3.3990     0.0830 hc         1 6OU       0.037700
    114 H67        -10.1650     5.0860    -1.5650 hc         1 6OU       0.036700
    115 H68        -11.6750     5.2050    -0.6620 hc         1 6OU       0.036700
    116 H69        -10.4090     6.0400     1.3430 hc         1 6OU       0.037700
    117 H70         -8.9000     5.9290     0.4350 hc         1 6OU       0.037700
    118 H71         -9.7680     7.6130    -1.2140 hc         1 6OU       0.036200
    119 H72        -11.2800     7.7190    -0.3130 hc         1 6OU       0.036200
    120 H73        -10.0230     8.5630     1.6960 hc         1 6OU       0.036700
    121 H74         -8.5120     8.4610     0.7930 hc         1 6OU       0.036700
    122 H75         -9.3670    10.8000     0.8170 hc         1 6OU       0.030700
    123 H76         -9.3670    10.1720    -0.8460 hc         1 6OU       0.030700
    124 H77        -10.8910    10.2760     0.0680 hc         1 6OU       0.030700
@<TRIPOS>BOND
     1     1     2 1   
     2     1    50 1   
     3     1    51 1   
     4     1    52 1   
     5     2     3 1   
     6     2    53 1   
     7     2    54 1   
     8     3     4 1   
     9     3    55 1   
    10     3    56 1   
    11     4     5 1   
    12     4    57 1   
    13     4    58 1   
    14     5     6 1   
    15     5    59 1   
    16     5    60 1   
    17     6     7 1   
    18     6    61 1   
    19     6    62 1   
    20     7     8 1   
    21     7    63 1   
    22     7    64 1   
    23     8     9 1   
    24     8    65 1   
    25     8    66 1   
    26     9    10 1   
    27     9    67 1   
    28     9    68 1   
    29    10    11 1   
    30    10    69 1   
    31    10    70 1   
    32    11    12 1   
    33    11    71 1   
    34    11    72 1   
    35    12    13 1   
    36    12    73 1   
    37    12    74 1   
    38    13    14 1   
    39    13    75 1   
    40    13    76 1   
    41    14    15 1   
    42    14    77 1   
    43    14    78 1   
    44    15    16 1   
    45    15    79 1   
    46    15    80 1   
    47    16    17 2   
    48    16    18 1   
    49    18    19 1   
    50    19    20 1   
    51    19    81 1   
    52    19    82 1   
    53    20    21 1   
    54    20    30 1   
    55    20    83 1   
    56    21    22 1   
    57    21    84 1   
    58    21    85 1   
    59    22    23 1   
    60    23    24 1   
    61    23    25 1   
    62    23    26 1   
    63    26    27 1   
    64    27    28 1   
    65    27    86 1   
    66    27    87 1   
    67    28    29 1   
    68    28    88 1   
    69    28    89 1   
    70    29    90 1   
    71    29    91 1   
    72    30    31 1   
    73    31    32 2   
    74    31    33 1   
    75    33    34 1   
    76    33    92 1   
    77    33    93 1   
    78    34    35 1   
    79    34    94 1   
    80    34    95 1   
    81    35    36 1   
    82    35    96 1   
    83    35    97 1   
    84    36    37 1   
    85    36    98 1   
    86    36    99 1   
    87    37    38 1   
    88    37   100 1   
    89    37   101 1   
    90    38    39 1   
    91    38   102 1   
    92    38   103 1   
    93    39    40 1   
    94    39   104 1   
    95    39   105 1   
    96    40    41 2   
    97    40   106 1   
    98    41    42 1   
    99    41   107 1   
   100    42    43 1   
   101    42   108 1   
   102    42   109 1   
   103    43    44 1   
   104    43   110 1   
   105    43   111 1   
   106    44    45 1   
   107    44   112 1   
   108    44   113 1   
   109    45    46 1   
   110    45   114 1   
   111    45   115 1   
   112    46    47 1   
   113    46   116 1   
   114    46   117 1   
   115    47    48 1   
   116    47   118 1   
   117    47   119 1   
   118    48    49 1   
   119    48   120 1   
   120    48   121 1   
   121    49   122 1   
   122    49   123 1   
   123    49   124 1   
@<TRIPOS>SUBSTRUCTURE
     1 6OU         1 TEMP              0 ****  ****    0 ROOT
