@<TRIPOS>MOLECULE
6OU
  124   123     1     0     0
SMALL
abcg2


@<TRIPOS>ATOM
      1 C01         15.6390     8.9180    -2.4180 c3         1 6OU      -0.088100
      2 C02         15.2330     7.8500    -1.4120 c3         1 6OU      -0.075400
      3 C03         13.8700     7.2400    -1.7150 c3         1 6OU      -0.075400
      4 C04         13.4520     6.1650    -0.7210 c3         1 6OU      -0.074400
      5 C05         12.0860     5.5640    -1.0280 c3         1 6OU      -0.074400
      6 C06         11.6610     4.4840    -0.0410 c3         1 6OU      -0.074400
      7 C07         10.2930     3.8930    -0.3560 c3         1 6OU      -0.074400
      8 C08          9.8570     2.8090     0.6220 c3         1 6OU      -0.074400
      9 C09          8.4870     2.2290     0.2930 c3         1 6OU      -0.075400
     10 C10          8.0320     1.1420     1.2580 c3         1 6OU      -0.074400
     11 C11          6.6620     0.5780     0.9050 c3         1 6OU      -0.075400
     12 C12          6.1790    -0.5180     1.8470 c3         1 6OU      -0.072400
     13 C13          4.8120    -1.0580     1.4490 c3         1 6OU      -0.083400
     14 C14          4.2870    -2.1640     2.3560 c3         1 6OU      -0.057400
     15 C15          3.0000    -2.7510     1.7960 c3         1 6OU      -0.143400
     16 C16          2.2740    -3.6730     2.7320 c          1 6OU       0.629100
     17 O17          2.6780    -4.0450     3.8070 o          1 6OU      -0.511000
     18 O18          1.0870    -4.0010     2.2410 os         1 6OU      -0.415100
     19 C19          0.2930    -4.9420     2.9450 c3         1 6OU       0.176600
     20 C20         -0.7550    -5.5030     2.0090 c3         1 6OU       0.151300
     21 C21         -0.2320    -6.4630     0.9540 c3         1 6OU       0.213600
     22 O22          0.7420    -5.8880     0.1110 os         1 6OU      -0.561400
     23 P23          2.2500    -6.5400     0.1530 p5         1 6OU       1.380800
     24 O24          2.2160    -7.9270    -0.4210 o          1 6OU      -0.830500
     25 O25          2.8870    -6.3310     1.4940 o          1 6OU      -0.830500
     26 O26          2.8580    -5.4900    -0.9470 os         1 6OU      -0.569400
     27 C27          4.1520    -5.7930    -1.4390 c3         1 6OU       0.218600
     28 C28          4.7650    -4.5930    -2.1240 c3         1 6OU       0.145800
     29 N29          4.9630    -3.4800    -1.2110 n8         1 6OU      -0.981200
     30 O30         -1.4310    -4.3860     1.4160 os         1 6OU      -0.417100
     31 C31         -2.7190    -4.5020     1.1020 c          1 6OU       0.598100
     32 O32         -3.3550    -5.5150     1.2540 o          1 6OU      -0.515000
     33 C33         -3.2630    -3.2120     0.5520 c3         1 6OU      -0.141400
     34 C34         -4.7320    -3.2830     0.1670 c3         1 6OU      -0.067400
     35 C35         -5.2580    -1.9420    -0.3320 c3         1 6OU      -0.076400
     36 C36         -6.7320    -1.9940    -0.7110 c3         1 6OU      -0.074400
     37 C37         -7.2760    -0.6580    -1.2000 c3         1 6OU      -0.075400
     38 C38         -8.7560    -0.7130    -1.5550 c3         1 6OU      -0.072400
     39 C39         -9.3020     0.6240    -2.0600 c3         1 6OU      -0.045200
     40 C40        -10.7450     0.5290    -2.4460 c2         1 6OU      -0.209200
     41 C41        -11.7780     1.1620    -1.8910 c2         1 6OU      -0.223200
     42 C42        -11.7450     2.1620    -0.7770 c3         1 6OU      -0.042200
     43 C43        -12.2010     3.5480    -1.2380 c3         1 6OU      -0.072400
     44 C44        -12.1900     4.5820    -0.1190 c3         1 6OU      -0.075400
     45 C45        -12.6650     5.9570    -0.5730 c3         1 6OU      -0.074400
     46 C46        -12.6250     7.0060     0.5320 c3         1 6OU      -0.074400
     47 C47        -13.1110     8.3760     0.0770 c3         1 6OU      -0.075400
     48 C48        -13.0610     9.4320     1.1750 c3         1 6OU      -0.075400
     49 C49        -13.5520    10.7960     0.7100 c3         1 6OU      -0.088100
     50 H1          16.6130     9.3470    -2.1800 hc         1 6OU       0.030033
     51 H2          15.6990     8.5030    -3.4270 hc         1 6OU       0.030033
     52 H3          14.9150     9.7340    -2.4430 hc         1 6OU       0.030033
     53 H4          15.9880     7.0590    -1.3930 hc         1 6OU       0.036200
     54 H5          15.2200     8.2800    -0.4050 hc         1 6OU       0.036200
     55 H6          13.1150     8.0350    -1.7310 hc         1 6OU       0.036700
     56 H7          13.8820     6.8160    -2.7260 hc         1 6OU       0.036700
     57 H8          14.2040     5.3690    -0.7090 hc         1 6OU       0.036200
     58 H9          13.4430     6.5870     0.2900 hc         1 6OU       0.036200
     59 H10         11.3340     6.3620    -1.0380 hc         1 6OU       0.036700
     60 H11         12.0940     5.1460    -2.0410 hc         1 6OU       0.036700
     61 H12         12.4100     3.6840    -0.0330 hc         1 6OU       0.036200
     62 H13         11.6520     4.9000     0.9730 hc         1 6OU       0.036200
     63 H14          9.5460     4.6940    -0.3640 hc         1 6OU       0.036200
     64 H15         10.3030     3.4810    -1.3710 hc         1 6OU       0.036200
     65 H16         10.6010     2.0050     0.6300 hc         1 6OU       0.036200
     66 H17          9.8440     3.2190     1.6390 hc         1 6OU       0.036200
     67 H18          7.7460     3.0370     0.2840 hc         1 6OU       0.036200
     68 H19          8.5030     1.8250    -0.7250 hc         1 6OU       0.036200
     69 H20          8.7690     0.3310     1.2670 hc         1 6OU       0.035700
     70 H21          8.0110     1.5430     2.2780 hc         1 6OU       0.035700
     71 H22          5.9290     1.3930     0.8950 hc         1 6OU       0.035200
     72 H23          6.6880     0.1850    -0.1170 hc         1 6OU       0.035200
     73 H24          6.9070    -1.3360     1.8570 hc         1 6OU       0.034700
     74 H25          6.1410    -0.1320     2.8720 hc         1 6OU       0.034700
     75 H26          4.0890    -0.2350     1.4360 hc         1 6OU       0.040700
     76 H27          4.8570    -1.4320     0.4220 hc         1 6OU       0.040700
     77 H28          5.0400    -2.9510     2.4560 hc         1 6OU       0.045200
     78 H29          4.1220    -1.7640     3.3600 hc         1 6OU       0.045200
     79 H30          2.3130    -1.9460     1.5140 hc         1 6OU       0.086200
     80 H31          3.2100    -3.2980     0.8710 hc         1 6OU       0.086200
     81 H32          0.8950    -5.7650     3.3320 h1         1 6OU       0.053700
     82 H33         -0.1930    -4.4520     3.7930 h1         1 6OU       0.053700
     83 H34         -1.4530    -6.0760     2.6280 h1         1 6OU       0.049700
     84 H35          0.1380    -7.3460     1.4880 h1         1 6OU       0.034200
     85 H36         -1.0680    -6.8080     0.3400 h1         1 6OU       0.034200
     86 H38          4.8160    -6.1150    -0.6260 h1         1 6OU       0.020200
     87 H39          4.1050    -6.6170    -2.1580 h1         1 6OU       0.020200
     88 H40          5.6920    -4.9510    -2.5920 h1         1 6OU       0.016700
     89 H41          4.1170    -4.2680    -2.9420 h1         1 6OU       0.016700
     90 H42          5.5490    -3.7730    -0.4390 hn         1 6OU       0.379500
     91 H43          5.4750    -2.7450    -1.6820 hn         1 6OU       0.379500
     92 H45         -3.1010    -2.4330     1.3040 hc         1 6OU       0.071700
     93 H46         -2.6530    -2.9180    -0.3080 hc         1 6OU       0.071700
     94 H47         -4.8750    -4.0400    -0.6080 hc         1 6OU       0.050700
     95 H48         -5.3250    -3.6050     1.0270 hc         1 6OU       0.050700
     96 H49         -5.1090    -1.1830     0.4430 hc         1 6OU       0.036700
     97 H50         -4.6690    -1.6150    -1.1960 hc         1 6OU       0.036700
     98 H51         -6.8800    -2.7510    -1.4890 hc         1 6OU       0.038700
     99 H52         -7.3160    -2.3290     0.1530 hc         1 6OU       0.038700
    100 H53         -7.1160     0.1030    -0.4280 hc         1 6OU       0.036700
    101 H54         -6.7030    -0.3290    -2.0740 hc         1 6OU       0.036700
    102 H55         -8.9200    -1.4810    -2.3180 hc         1 6OU       0.039200
    103 H56         -9.3310    -1.0270    -0.6770 hc         1 6OU       0.039200
    104 H57         -9.1460     1.3920    -1.2990 hc         1 6OU       0.044200
    105 H58         -8.7160     0.9330    -2.9330 hc         1 6OU       0.044200
    106 H59        -10.9560    -0.1580    -3.2620 ha         1 6OU       0.164000
    107 H60        -12.7670     0.9600    -2.2960 ha         1 6OU       0.162000
    108 H61        -12.4060     1.8250     0.0280 hc         1 6OU       0.044200
    109 H62        -10.7450     2.2340    -0.3420 hc         1 6OU       0.044200
    110 H63        -11.5540     3.8860    -2.0540 hc         1 6OU       0.038200
    111 H64        -13.2090     3.4760    -1.6590 hc         1 6OU       0.038200
    112 H65        -12.8190     4.2340     0.7070 hc         1 6OU       0.037700
    113 H66        -11.1760     4.6630     0.2870 hc         1 6OU       0.037700
    114 H67        -12.0490     6.2940    -1.4140 hc         1 6OU       0.036700
    115 H68        -13.6870     5.8770    -0.9600 hc         1 6OU       0.036700
    116 H69        -13.2340     6.6670     1.3780 hc         1 6OU       0.037700
    117 H70        -11.6010     7.0910     0.9130 hc         1 6OU       0.037700
    118 H71        -12.5070     8.7110    -0.7740 hc         1 6OU       0.036200
    119 H72        -14.1370     8.2920    -0.2970 hc         1 6OU       0.036200
    120 H73        -13.6610     9.0960     2.0270 hc         1 6OU       0.036700
    121 H74        -12.0350     9.5200     1.5460 hc         1 6OU       0.036700
    122 H75        -13.5000    11.5360     1.5090 hc         1 6OU       0.030700
    123 H76        -12.9520    11.1660    -0.1230 hc         1 6OU       0.030700
    124 H77        -14.5890    10.7480     0.3710 hc         1 6OU       0.030700
@<TRIPOS>BOND
     1     1     2 1   
     2     1    50 1   
     3     1    51 1   
     4     1    52 1   
     5     2     3 1   
     6     2    53 1   
     7     2    54 1   
     8     3     4 1   
     9     3    55 1   
    10     3    56 1   
    11     4     5 1   
    12     4    57 1   
    13     4    58 1   
    14     5     6 1   
    15     5    59 1   
    16     5    60 1   
    17     6     7 1   
    18     6    61 1   
    19     6    62 1   
    20     7     8 1   
    21     7    63 1   
    22     7    64 1   
    23     8     9 1   
    24     8    65 1   
    25     8    66 1   
    26     9    10 1   
    27     9    67 1   
    28     9    68 1   
    29    10    11 1   
    30    10    69 1   
    31    10    70 1   
    32    11    12 1   
    33    11    71 1   
    34    11    72 1   
    35    12    13 1   
    36    12    73 1   
    37    12    74 1   
    38    13    14 1   
    39    13    75 1   
    40    13    76 1   
    41    14    15 1   
    42    14    77 1   
    43    14    78 1   
    44    15    16 1   
    45    15    79 1   
    46    15    80 1   
    47    16    17 2   
    48    16    18 1   
    49    18    19 1   
    50    19    20 1   
    51    19    81 1   
    52    19    82 1   
    53    20    21 1   
    54    20    30 1   
    55    20    83 1   
    56    21    22 1   
    57    21    84 1   
    58    21    85 1   
    59    22    23 1   
    60    23    24 1   
    61    23    25 1   
    62    23    26 1   
    63    26    27 1   
    64    27    28 1   
    65    27    86 1   
    66    27    87 1   
    67    28    29 1   
    68    28    88 1   
    69    28    89 1   
    70    29    90 1   
    71    29    91 1   
    72    30    31 1   
    73    31    32 2   
    74    31    33 1   
    75    33    34 1   
    76    33    92 1   
    77    33    93 1   
    78    34    35 1   
    79    34    94 1   
    80    34    95 1   
    81    35    36 1   
    82    35    96 1   
    83    35    97 1   
    84    36    37 1   
    85    36    98 1   
    86    36    99 1   
    87    37    38 1   
    88    37   100 1   
    89    37   101 1   
    90    38    39 1   
    91    38   102 1   
    92    38   103 1   
    93    39    40 1   
    94    39   104 1   
    95    39   105 1   
    96    40    41 2   
    97    40   106 1   
    98    41    42 1   
    99    41   107 1   
   100    42    43 1   
   101    42   108 1   
   102    42   109 1   
   103    43    44 1   
   104    43   110 1   
   105    43   111 1   
   106    44    45 1   
   107    44   112 1   
   108    44   113 1   
   109    45    46 1   
   110    45   114 1   
   111    45   115 1   
   112    46    47 1   
   113    46   116 1   
   114    46   117 1   
   115    47    48 1   
   116    47   118 1   
   117    47   119 1   
   118    48    49 1   
   119    48   120 1   
   120    48   121 1   
   121    49   122 1   
   122    49   123 1   
   123    49   124 1   
@<TRIPOS>SUBSTRUCTURE
     1 6OU         1 TEMP              0 ****  ****    0 ROOT
