@<TRIPOS>MOLECULE
6OV
   62    64     1     0     0
SMALL
No Charge or Current Charge


@<TRIPOS>ATOM
      1 C4           6.4570   -13.7490    98.2760 c6         1 6OV      -0.073400
      2 C5           7.9620   -13.5680    97.9710 c6         1 6OV      -0.075400
      3 C6           8.1880   -13.2440    96.4750 c6         1 6OV      -0.073400
      4 N1           5.1830   -13.4690    91.7380 n          1 6OV      -0.395800
      5 C7           7.5580   -14.3230    95.5600 c6         1 6OV      -0.072900
      6 C8           4.7600   -14.0580    92.9550 c          1 6OV       0.620100
      7 C9           6.3840   -13.8960    90.9860 c5         1 6OV       0.107000
      8 C10          6.6460   -12.6630    90.0860 c5         1 6OV      -0.095400
      9 C11          5.2100   -12.2000    89.7500 c5         1 6OV      -0.084400
     10 C12          4.5080   -12.2800    91.1400 c5         1 6OV       0.030700
     11 N3          -1.4800    -8.2940    96.2000 nv         1 6OV      -1.089200
     12 C13          2.9680   -12.4230    90.8980 c          1 6OV       0.598100
     13 C14          0.9780   -10.9060    90.6250 c3         1 6OV       0.147300
     14 C15          0.3040   -10.5440    91.9400 ca         1 6OV      -0.100300
     15 N4          -2.2750   -10.3870    96.3880 n2         1 6OV      -0.826100
     16 O1           3.8500   -13.5390    93.5960 o          1 6OV      -0.630100
     17 C            5.4520   -15.4050    93.4290 c3         1 6OV       0.092500
     18 C1           5.3840   -15.6230    94.9690 c3         1 6OV      -0.108400
     19 C2           6.0410   -14.5170    95.8590 c6         1 6OV      -0.060700
     20 C3           5.8280   -14.8340    97.3670 c6         1 6OV      -0.072900
     21 N            4.9400   -16.6430    92.7500 n8         1 6OV      -0.976200
     22 O            2.3220   -13.4580    90.7850 o          1 6OV      -0.582100
     23 C21         -0.0600   -11.5520    92.8510 ca         1 6OV      -0.108500
     24 C20         -0.6820   -11.2220    94.0680 ca         1 6OV      -0.079000
     25 C18         -0.9390    -9.8740    94.4090 ca         1 6OV      -0.146900
     26 C19         -1.6330    -9.5380    95.6970 ce         1 6OV       0.662800
     27 C17         -0.5870    -8.8680    93.4770 ca         1 6OV      -0.079000
     28 C16          0.0340    -9.2010    92.2600 ca         1 6OV      -0.108500
     29 H1           6.3210   -14.0230    99.3320 hc         1 6OV       0.038200
     30 H2           5.9320   -12.7950    98.1320 hc         1 6OV       0.038200
     31 H3           8.5080   -14.4840    98.2380 hc         1 6OV       0.039200
     32 H4           8.3760   -12.7640    98.5940 hc         1 6OV       0.039200
     33 H5           9.2650   -13.1640    96.2700 hc         1 6OV       0.038200
     34 H6           7.7540   -12.2620    96.2400 hc         1 6OV       0.038200
     35 H7           7.7090   -14.0250    94.5150 hc         1 6OV       0.039700
     36 H8           8.0900   -15.2760    95.6940 hc         1 6OV       0.039700
     37 H9           3.0260   -10.3730    90.9250 hn         1 6OV       0.312500
     38 H10          6.1690   -14.7950    90.3920 h1         1 6OV       0.057700
     39 H11          7.2470   -14.0980    91.6330 h1         1 6OV       0.057700
     40 H12          7.2340   -12.9120    89.1960 hc         1 6OV       0.056200
     41 H13          7.1930   -11.8860    90.6340 hc         1 6OV       0.056200
     42 H14          5.1790   -11.1910    89.3210 hc         1 6OV       0.063200
     43 H15          4.7450   -12.8770    89.0230 hc         1 6OV       0.063200
     44 H16          4.7050   -11.3870    91.7480 h1         1 6OV       0.062700
     45 H17         -1.5620    -8.2150    97.2070 hn         1 6OV       0.464500
     46 H18         -0.7270    -7.7530    95.7900 hn         1 6OV       0.464500
     47 H19          0.8640   -10.0820    89.9080 h1         1 6OV       0.065200
     48 H20          0.4900   -11.7890    90.1890 h1         1 6OV       0.065200
     49 H21         -2.8190    -9.8760    97.0910 hn         1 6OV       0.366400
     50 H22          6.5150   -15.3300    93.1720 h1         1 6OV       0.068700
     51 H23          4.3300   -15.7320    95.2530 hc         1 6OV       0.051700
     52 H24          5.8570   -16.5860    95.2030 hc         1 6OV       0.051700
     53 H25          5.5240   -13.5730    95.6400 hc         1 6OV       0.047700
     54 H26          4.7550   -14.9130    97.5860 hc         1 6OV       0.039700
     55 H27          6.2670   -15.8120    97.6090 hc         1 6OV       0.039700
     56 H28          5.3760   -17.4700    93.1740 hn         1 6OV       0.404500
     57 H29          3.9420   -16.7590    92.9660 hn         1 6OV       0.404500
     58 H31          0.1400   -12.5950    92.6160 ha         1 6OV       0.128000
     59 H32         -0.9550   -12.0230    94.7520 ha         1 6OV       0.125500
     60 H33         -0.8010    -7.8220    93.6800 ha         1 6OV       0.125500
     61 H34          0.3010    -8.4100    91.5620 ha         1 6OV       0.128000
     62 N2           2.4050   -11.1660    90.8150 ns         1 6OV      -0.501900
@<TRIPOS>BOND
     1     1     2 1   
     2     1    20 1   
     3     1    29 1   
     4     1    30 1   
     5     2     3 1   
     6     2    31 1   
     7     2    32 1   
     8     3     5 1   
     9     3    33 1   
    10     3    34 1   
    11     4     6 1   
    12     4     7 1   
    13     4    10 1   
    14     5    19 1   
    15     5    35 1   
    16     5    36 1   
    17     6    16 2   
    18     6    17 1   
    19     7     8 1   
    20     7    38 1   
    21     7    39 1   
    22     8     9 1   
    23     8    40 1   
    24     8    41 1   
    25     9    10 1   
    26     9    42 1   
    27     9    43 1   
    28    10    12 1   
    29    10    44 1   
    30    11    26 1   
    31    11    45 1   
    32    11    46 1   
    33    12    22 2   
    34    12    62 1   
    35    13    14 1   
    36    13    47 1   
    37    13    48 1   
    38    13    62 1   
    39    14    23 ar  
    40    14    28 ar  
    41    15    26 2   
    42    15    49 1   
    43    17    18 1   
    44    17    21 1   
    45    17    50 1   
    46    18    19 1   
    47    18    51 1   
    48    18    52 1   
    49    19    20 1   
    50    19    53 1   
    51    20    54 1   
    52    20    55 1   
    53    21    56 1   
    54    21    57 1   
    55    23    24 ar  
    56    23    58 1   
    57    24    25 ar  
    58    24    59 1   
    59    25    26 1   
    60    25    27 ar  
    61    27    28 ar  
    62    27    60 1   
    63    28    61 1   
    64    37    62 1   
@<TRIPOS>SUBSTRUCTURE
     1 6OV         1 TEMP              0 ****  ****    0 ROOT
