@<TRIPOS>MOLECULE
6OV
   62    64     1     0     0
SMALL
abcg2


@<TRIPOS>ATOM
      1 C4           8.1580   -13.3920    97.0490 c6         1 6OV      -0.073400
      2 C5           9.2290   -14.3800    96.5820 c6         1 6OV      -0.075400
      3 C6           8.9280   -14.9010    95.1750 c6         1 6OV      -0.073400
      4 N1           5.0180   -13.2840    92.5020 n          1 6OV      -0.395800
      5 C7           7.5230   -15.4980    95.0970 c6         1 6OV      -0.072900
      6 C8           4.2200   -13.7620    93.4710 c          1 6OV       0.620100
      7 C9           6.1790   -13.9340    91.8730 c5         1 6OV       0.107000
      8 C10          6.9970   -12.7470    91.3760 c5         1 6OV      -0.095400
      9 C11          5.9250   -11.7430    90.9500 c5         1 6OV      -0.084400
     10 C12          4.8200   -11.9210    92.0080 c5         1 6OV       0.030700
     11 N3          -3.5610    -9.1600    94.9190 nv         1 6OV      -1.089200
     12 C13          3.4330   -11.7350    91.3980 c          1 6OV       0.598100
     13 C14          1.6200   -10.1080    91.0510 c3         1 6OV       0.147300
     14 C15          0.4940   -10.1500    92.0620 ca         1 6OV      -0.100300
     15 N4          -3.0130   -11.3810    95.4860 n2         1 6OV      -0.826100
     16 O1           3.3050   -13.0730    93.9410 o          1 6OV      -0.630100
     17 C            4.4540   -15.1710    94.0120 c3         1 6OV       0.092500
     18 C1           5.0360   -15.0740    95.4330 c3         1 6OV      -0.108400
     19 C2           6.4500   -14.4910    95.5280 c6         1 6OV      -0.060700
     20 C3           6.7540   -13.9900    96.9440 c6         1 6OV      -0.072900
     21 N            3.1600   -15.8660    93.9490 n8         1 6OV      -0.976200
     22 O            2.8920   -12.6200    90.7400 o          1 6OV      -0.582100
     23 C21          0.5310   -10.9920    93.1740 ca         1 6OV      -0.108500
     24 C20         -0.5360   -11.0330    94.0610 ca         1 6OV      -0.079000
     25 C18         -1.6620   -10.2310    93.8670 ca         1 6OV      -0.146900
     26 C19         -2.7940   -10.2920    94.8350 ce         1 6OV       0.662800
     27 C17         -1.6940    -9.3850    92.7550 ca         1 6OV      -0.079000
     28 C16         -0.6290    -9.3500    91.8650 ca         1 6OV      -0.108500
     29 H1           8.3570   -13.0760    98.0770 hc         1 6OV       0.038200
     30 H2           8.2070   -12.4900    96.4280 hc         1 6OV       0.038200
     31 H3           9.2640   -15.2270    97.2760 hc         1 6OV       0.039200
     32 H4          10.2160   -13.9090    96.6100 hc         1 6OV       0.039200
     33 H5           9.6720   -15.6460    94.8800 hc         1 6OV       0.038200
     34 H6           9.0080   -14.0750    94.4590 hc         1 6OV       0.038200
     35 H7           7.3290   -15.8670    94.0870 hc         1 6OV       0.039700
     36 H8           7.4620   -16.3700    95.7590 hc         1 6OV       0.039700
     37 H9           3.3840    -9.8700    92.1950 hn         1 6OV       0.312500
     38 H10          5.8530   -14.5680    91.0440 h1         1 6OV       0.057700
     39 H11          6.7250   -14.5430    92.5850 h1         1 6OV       0.057700
     40 H12          7.6700   -13.0210    90.5640 hc         1 6OV       0.056200
     41 H13          7.5930   -12.3430    92.1970 hc         1 6OV       0.056200
     42 H14          6.2790   -10.7150    90.9130 hc         1 6OV       0.063200
     43 H15          5.5350   -12.0100    89.9660 hc         1 6OV       0.063200
     44 H16          4.9520   -11.2180    92.8340 h1         1 6OV       0.062700
     45 H17         -4.2450    -9.1120    95.6580 hn         1 6OV       0.464500
     46 H18         -3.1560    -8.2770    94.6530 hn         1 6OV       0.464500
     47 H19          1.7060    -9.1000    90.6420 h1         1 6OV       0.065200
     48 H20          1.3890   -10.7780    90.2210 h1         1 6OV       0.065200
     49 H21         -3.7970   -11.2650    96.1290 hn         1 6OV       0.366400
     50 H22          5.1410   -15.7150    93.3670 h1         1 6OV       0.068700
     51 H23          4.3450   -14.4700    96.0280 hc         1 6OV       0.051700
     52 H24          5.0320   -16.0800    95.8650 hc         1 6OV       0.051700
     53 H25          6.5150   -13.6200    94.8620 hc         1 6OV       0.047700
     54 H26          6.0050   -13.2490    97.2390 hc         1 6OV       0.039700
     55 H27          6.6610   -14.8300    97.6440 hc         1 6OV       0.039700
     56 H28          3.2580   -16.7810    94.3780 hn         1 6OV       0.404500
     57 H29          2.4900   -15.3520    94.5140 hn         1 6OV       0.404500
     58 H31          1.4000   -11.6110    93.3530 ha         1 6OV       0.128000
     59 H32         -0.5000   -11.6870    94.9210 ha         1 6OV       0.125500
     60 H33         -2.5580    -8.7610    92.5700 ha         1 6OV       0.125500
     61 H34         -0.6730    -8.6880    91.0080 ha         1 6OV       0.128000
     62 N2           2.9070   -10.5100    91.5790 ns         1 6OV      -0.501900
@<TRIPOS>BOND
     1     1     2 1   
     2     1    20 1   
     3     1    29 1   
     4     1    30 1   
     5     2     3 1   
     6     2    31 1   
     7     2    32 1   
     8     3     5 1   
     9     3    33 1   
    10     3    34 1   
    11     4     6 1   
    12     4     7 1   
    13     4    10 1   
    14     5    19 1   
    15     5    35 1   
    16     5    36 1   
    17     6    16 2   
    18     6    17 1   
    19     7     8 1   
    20     7    38 1   
    21     7    39 1   
    22     8     9 1   
    23     8    40 1   
    24     8    41 1   
    25     9    10 1   
    26     9    42 1   
    27     9    43 1   
    28    10    12 1   
    29    10    44 1   
    30    11    26 1   
    31    11    45 1   
    32    11    46 1   
    33    12    22 2   
    34    12    62 1   
    35    13    14 1   
    36    13    47 1   
    37    13    48 1   
    38    13    62 1   
    39    14    23 ar  
    40    14    28 ar  
    41    15    26 2   
    42    15    49 1   
    43    17    18 1   
    44    17    21 1   
    45    17    50 1   
    46    18    19 1   
    47    18    51 1   
    48    18    52 1   
    49    19    20 1   
    50    19    53 1   
    51    20    54 1   
    52    20    55 1   
    53    21    56 1   
    54    21    57 1   
    55    23    24 ar  
    56    23    58 1   
    57    24    25 ar  
    58    24    59 1   
    59    25    26 1   
    60    25    27 ar  
    61    27    28 ar  
    62    27    60 1   
    63    28    61 1   
    64    37    62 1   
@<TRIPOS>SUBSTRUCTURE
     1 6OV         1 TEMP              0 ****  ****    0 ROOT
