@<TRIPOS>MOLECULE
6OW
   28    30     1     0     0
SMALL
bcc


@<TRIPOS>ATOM
      1 C4           0.4690     1.7990    -0.0660 cc         1 6OW       0.101400
      2 C5          -1.5020     0.9740     0.0050 cd         1 6OW      -0.007300
      3 C6          -1.0720    -1.3830     0.0520 cd         1 6OW      -0.068300
      4 C7           2.1570    -1.5370    -0.7830 cc         1 6OW      -0.312300
      5 C10          1.5280     2.8450    -0.1230 c3         1 6OW      -0.028900
      6 C13          3.4840    -1.8120    -0.4220 cc         1 6OW       0.305200
      7 C15         -3.3510    -0.5630     0.0920 cc         1 6OW      -0.060300
      8 C1           0.6460     0.4290    -0.0510 cd         1 6OW      -0.140300
      9 N2          -0.6300    -0.0950    -0.0060 na         1 6OW       0.047700
     10 C3           1.8400    -0.3820    -0.0900 cd         1 6OW      -0.022100
     11 N8           2.9520    -0.0640     0.6080 na         1 6OW       0.006400
     12 N9          -0.8440     2.1210    -0.0310 nc         1 6OW      -0.296600
     13 C11         -2.8870     0.7220     0.0490 cd         1 6OW      -0.103000
     14 C12         -2.4050    -1.6270     0.1000 cc         1 6OW      -0.164000
     15 N14          3.9550    -0.9100     0.4180 nd         1 6OW      -0.514800
     16 C16         -4.8140    -0.8770     0.1280 c3         1 6OW      -0.047800
     17 H61         -0.3250    -2.1610     0.0670 h4         1 6OW       0.173000
     18 H101         1.8280     3.1670     0.8760 hc         1 6OW       0.051700
     19 H102         2.4220     2.4880    -0.6350 hc         1 6OW       0.051700
     20 H103         1.1640     3.7230    -0.6530 hc         1 6OW       0.051700
     21 H131         4.1080    -2.6290    -0.7530 h4         1 6OW       0.037100
     22 H1           3.0630     0.7040     1.2520 hn         1 6OW       0.323700
     23 H111        -3.5620     1.5680     0.0510 ha         1 6OW       0.162000
     24 H121        -2.7400    -2.6540     0.1490 ha         1 6OW       0.149000
     25 H161        -5.1210    -1.4000    -0.7800 hc         1 6OW       0.048367
     26 H162        -5.0540    -1.5320     0.9680 hc         1 6OW       0.048367
     27 H163        -5.4160     0.0250     0.2160 hc         1 6OW       0.048367
     28 H71          1.5330    -2.0800    -1.4730 ha         1 6OW       0.162000
@<TRIPOS>BOND
     1     1     5 1   
     2     1     8 2   
     3     1    12 1   
     4     2     9 1   
     5     2    12 2   
     6     2    13 1   
     7     3     9 1   
     8     3    14 2   
     9     3    17 1   
    10     4     6 1   
    11     4    10 2   
    12     4    28 1   
    13     5    18 1   
    14     5    19 1   
    15     5    20 1   
    16     6    15 2   
    17     6    21 1   
    18     7    13 2   
    19     7    14 1   
    20     7    16 1   
    21     8     9 1   
    22     8    10 1   
    23    10    11 1   
    24    11    15 1   
    25    11    22 1   
    26    13    23 1   
    27    14    24 1   
    28    16    25 1   
    29    16    26 1   
    30    16    27 1   
@<TRIPOS>SUBSTRUCTURE
     1 6OW         1 TEMP              0 ****  ****    0 ROOT
