@<TRIPOS>MOLECULE
6OW
   28    30     1     0     0
SMALL
No Charge or Current Charge


@<TRIPOS>ATOM
      1 C4           0.4760     1.7280     0.0730 cc         1 6OW       0.101400
      2 C5          -1.5240     0.9400    -0.0550 cd         1 6OW      -0.058000
      3 C6          -1.0650    -1.4230     0.1220 cd         1 6OW      -0.101000
      4 C7           2.1160    -1.6520    -0.4680 cc         1 6OW      -0.229000
      5 C10          1.5120     2.8170     0.1830 c3         1 6OW      -0.028900
      6 C13          3.5040    -1.8500    -0.4310 cc         1 6OW       0.239900
      7 C15         -3.4060    -0.5300    -0.0220 cc         1 6OW      -0.060300
      8 C1           0.6450     0.3560    -0.0420 cd         1 6OW      -0.140300
      9 N2          -0.6520    -0.1140    -0.1510 na         1 6OW       0.149100
     10 C3           1.9090    -0.3520    -0.1170 cd         1 6OW      -0.072800
     11 N8           3.1880     0.1800     0.0960 na         1 6OW       0.006800
     12 N9          -0.8590     2.0760     0.0420 nc         1 6OW      -0.296600
     13 C11         -2.9390     0.7700    -0.0530 cd         1 6OW      -0.085000
     14 C12         -2.4450    -1.6050     0.1000 cc         1 6OW      -0.146000
     15 N14          4.1910    -0.7760    -0.0910 nd         1 6OW      -0.514800
     16 C16         -4.8710    -0.8800    -0.0180 c3         1 6OW      -0.047800
     17 H61         -0.3390    -2.2000     0.3020 h4         1 6OW       0.155000
     18 H101         2.0850     2.7200     1.1120 hc         1 6OW       0.051700
     19 H102         2.2070     2.7840    -0.6650 hc         1 6OW       0.051700
     20 H103         1.0470     3.8100     0.1860 hc         1 6OW       0.051700
     21 H131         4.0400    -2.7610    -0.6620 h4         1 6OW       0.037100
     22 H1           3.4100     1.1340     0.3700 hn         1 6OW       0.374000
     23 H111        -3.6140     1.6200    -0.0420 ha         1 6OW       0.144000
     24 H121        -2.8360    -2.6110     0.2190 ha         1 6OW       0.131000
     25 H161        -5.0860    -1.6710    -0.7450 hc         1 6OW       0.048367
     26 H162        -5.1830    -1.2350     0.9720 hc         1 6OW       0.048367
     27 H163        -5.4900    -0.0130    -0.2750 hc         1 6OW       0.048367
     28 H71          1.4050    -2.4060    -0.7780 ha         1 6OW       0.144000
@<TRIPOS>BOND
     1     1     5 1   
     2     1     8 2   
     3     1    12 1   
     4     2     9 1   
     5     2    12 2   
     6     2    13 1   
     7     3     9 1   
     8     3    14 2   
     9     3    17 1   
    10     4     6 1   
    11     4    10 2   
    12     4    28 1   
    13     5    18 1   
    14     5    19 1   
    15     5    20 1   
    16     6    15 2   
    17     6    21 1   
    18     7    13 2   
    19     7    14 1   
    20     7    16 1   
    21     8     9 1   
    22     8    10 1   
    23    10    11 1   
    24    11    15 1   
    25    11    22 1   
    26    13    23 1   
    27    14    24 1   
    28    16    25 1   
    29    16    26 1   
    30    16    27 1   
@<TRIPOS>SUBSTRUCTURE
     1 6OW         1 TEMP              0 ****  ****    0 ROOT
