@<TRIPOS>MOLECULE
6OX
   68    71     1     0     0
SMALL
No Charge or Current Charge


@<TRIPOS>ATOM
      1 C1          -0.1970     2.6750    -0.6870 ca         1 6OX      -0.095000
      2 C2          -0.2630     2.4000     0.6780 ca         1 6OX      -0.110500
      3 C3           2.1000     1.8680    -0.7100 ca         1 6OX       0.128000
      4 C4           2.0720     1.5630     0.6950 ca         1 6OX      -0.055300
      5 C5           3.3550     0.9180     1.3610 c3         1 6OX      -0.006000
      6 C6           0.8350     1.8630     1.3730 ca         1 6OX       0.128000
      7 C10         -3.4120     0.0900    -0.4110 ca         1 6OX      -0.042000
      8 C12         -1.3070    -1.1500     0.2390 cp         1 6OX      -0.011000
      9 C13          3.7660    -0.3680     0.6190 cc         1 6OX       0.430800
     10 C14          1.5330    -1.3630     0.1760 ca         1 6OX      -0.039200
     11 C15          0.8240    -1.6440     1.3580 ca         1 6OX      -0.070000
     12 C16          4.9640    -1.9520    -0.2950 cd         1 6OX       0.245300
     13 C17          3.6610    -2.3670    -0.4380 cc         1 6OX      -0.165000
     14 C25         -6.3380     0.9810    -2.6920 c3         1 6OX      -0.330100
     15 O1          -4.3330     2.4610    -1.8990 o          1 6OX      -0.524500
     16 O2          -6.4690     2.4250    -0.5120 o          1 6OX      -0.524500
     17 C22         -4.8130     0.3000    -0.3730 ca         1 6OX      -0.208500
     18 C23         -5.6270    -0.5980     0.3890 ca         1 6OX      -0.032300
     19 O4          -7.7740    -1.3320    -0.5150 oh         1 6OX      -0.658000
     20 C9          -4.9960    -1.6540     1.0870 ca         1 6OX       0.178000
     21 F1          -5.7280    -2.5290     1.8170 f          1 6OX      -0.168000
     22 C8          -3.6080    -1.8330     1.0430 ca         1 6OX      -0.097000
     23 C7          -2.7890    -0.9690     0.2890 cp         1 6OX      -0.017000
     24 C26         -0.5870    -0.9410    -0.9610 ca         1 6OX      -0.140000
     25 C27          0.8090    -1.0610    -0.9970 ca         1 6OX       0.189000
     26 F2           1.4520    -0.8620    -2.1700 f          1 6OX      -0.152000
     27 C11         -0.5760    -1.5300     1.3900 ca         1 6OX      -0.107000
     28 N2           2.9300    -1.3840     0.1720 na         1 6OX      -0.085300
     29 C18          6.2230    -2.6780    -0.7850 c3         1 6OX       0.170700
     30 C19          6.9660    -1.8210    -1.8360 c3         1 6OX      -0.113600
     31 C20          7.1540    -3.0160     0.4030 c3         1 6OX      -0.113600
     32 O3           5.8850    -3.9210    -1.4200 oh         1 6OX      -0.666000
     33 N1           5.0220    -0.7300     0.3710 nd         1 6OX      -0.673000
     34 C28          4.4910     1.9950     1.3550 c3         1 6OX      -0.082100
     35 C29          3.2600     0.5040     2.8590 c3         1 6OX      -0.082100
     36 Cl1          3.4860     1.5620    -1.7690 cl         1 6OX      -0.191500
     37 C21          0.9870     2.4110    -1.3720 ca         1 6OX      -0.110500
     38 Cl2          0.4970     1.6310     3.0910 cl         1 6OX      -0.191500
     39 H1          -1.0570     3.0910    -1.2090 ha         1 6OX       0.143000
     40 H2          -1.1860     2.6100     1.2150 ha         1 6OX       0.135500
     41 H3          -2.7770     0.7670    -0.9770 ha         1 6OX       0.153000
     42 H4           1.3550    -1.9410     2.2590 ha         1 6OX       0.137000
     43 H5           3.2350    -3.2460    -0.9030 h4         1 6OX       0.172000
     44 H6          -7.4720    -0.8350     1.4840 h1         1 6OX       0.053200
     45 H7          -7.5100     0.5250     0.3990 h1         1 6OX       0.053200
     46 H8          -7.1840     0.4100    -2.3040 h1         1 6OX       0.109033
     47 H9          -6.6880     1.7870    -3.3440 h1         1 6OX       0.109033
     48 H10         -5.6410     0.3270    -3.2270 h1         1 6OX       0.109033
     49 H11         -8.7430    -1.3110    -0.3490 ho         1 6OX       0.454000
     50 H12         -3.1670    -2.6640     1.5880 ha         1 6OX       0.142000
     51 H13         -1.1140    -0.6860    -1.8770 ha         1 6OX       0.141000
     52 H14         -1.0960    -1.7110     2.3280 ha         1 6OX       0.128000
     53 H15          7.2940    -0.8690    -1.4010 hc         1 6OX       0.043533
     54 H16          7.8540    -2.3410    -2.2170 hc         1 6OX       0.043533
     55 H17          6.3100    -1.5950    -2.6850 hc         1 6OX       0.043533
     56 H18          6.6300    -3.6350     1.1410 hc         1 6OX       0.043533
     57 H19          8.0450    -3.5610     0.0670 hc         1 6OX       0.043533
     58 H20          7.4900    -2.1020     0.9070 hc         1 6OX       0.043533
     59 H21          6.7280    -4.3320    -1.7090 ho         1 6OX       0.443000
     60 H22          4.1520     2.9110     1.8560 hc         1 6OX       0.047533
     61 H23          5.3810     1.6390     1.8880 hc         1 6OX       0.047533
     62 H24          4.8220     2.2760     0.3530 hc         1 6OX       0.047533
     63 H25          2.4560    -0.2110     3.0440 hc         1 6OX       0.047533
     64 H26          4.1870     0.0130     3.1790 hc         1 6OX       0.047533
     65 H27          3.1300     1.3740     3.5140 hc         1 6OX       0.047533
     66 H28          1.0450     2.6190    -2.4380 ha         1 6OX       0.135500
     67 C24         -7.1580    -0.5070     0.4840 c3         1 6OX       0.185900
     68 S1          -5.4620     1.7220    -1.3170 sy         1 6OX       1.043500
@<TRIPOS>BOND
     1     1     2 ar  
     2     1    37 ar  
     3     1    39 1   
     4     2     6 ar  
     5     2    40 1   
     6     3     4 ar  
     7     3    36 1   
     8     3    37 ar  
     9     4     5 1   
    10     4     6 ar  
    11     5     9 1   
    12     5    34 1   
    13     5    35 1   
    14     6    38 1   
    15     7    17 ar  
    16     7    23 ar  
    17     7    41 1   
    18     8    23 1   
    19     8    24 ar  
    20     8    27 ar  
    21     9    28 1   
    22     9    33 2   
    23    10    11 ar  
    24    10    25 ar  
    25    10    28 1   
    26    11    27 ar  
    27    11    42 1   
    28    12    13 2   
    29    12    29 1   
    30    12    33 1   
    31    13    28 1   
    32    13    43 1   
    33    14    46 1   
    34    14    47 1   
    35    14    48 1   
    36    14    68 1   
    37    15    68 2   
    38    16    68 2   
    39    17    18 ar  
    40    17    68 1   
    41    18    20 ar  
    42    18    67 1   
    43    19    49 1   
    44    19    67 1   
    45    20    21 1   
    46    20    22 ar  
    47    22    23 ar  
    48    22    50 1   
    49    24    25 ar  
    50    24    51 1   
    51    25    26 1   
    52    27    52 1   
    53    29    30 1   
    54    29    31 1   
    55    29    32 1   
    56    30    53 1   
    57    30    54 1   
    58    30    55 1   
    59    31    56 1   
    60    31    57 1   
    61    31    58 1   
    62    32    59 1   
    63    34    60 1   
    64    34    61 1   
    65    34    62 1   
    66    35    63 1   
    67    35    64 1   
    68    35    65 1   
    69    37    66 1   
    70    44    67 1   
    71    45    67 1   
@<TRIPOS>SUBSTRUCTURE
     1 6OX         1 TEMP              0 ****  ****    0 ROOT
