@<TRIPOS>MOLECULE
6OX
   68    71     1     0     0
SMALL
abcg2


@<TRIPOS>ATOM
      1 C1          -0.2250     2.4760    -0.9320 ca         1 6OX      -0.095000
      2 C2          -0.3510     2.2240     0.4170 ca         1 6OX      -0.110500
      3 C3           2.0330     1.6990    -0.8120 ca         1 6OX       0.128000
      4 C4           1.9610     1.4020     0.5650 ca         1 6OX      -0.055300
      5 C5           3.2030     0.8260     1.2780 c3         1 6OX      -0.006000
      6 C6           0.7190     1.7140     1.1430 ca         1 6OX       0.128000
      7 C10         -3.3130     0.0490    -0.3780 ca         1 6OX      -0.042000
      8 C12         -1.3040    -1.2840     0.1980 cp         1 6OX      -0.011000
      9 C13          3.6970    -0.4010     0.5370 cc         1 6OX       0.430800
     10 C14          1.4830    -1.4680     0.1210 ca         1 6OX      -0.039200
     11 C15          0.7890    -1.8020     1.2740 ca         1 6OX      -0.070000
     12 C16          4.9830    -1.9040    -0.2880 cd         1 6OX       0.245300
     13 C17          3.7170    -2.3730    -0.4570 cc         1 6OX      -0.165000
     14 C25         -6.2540     1.1810    -2.4450 c3         1 6OX      -0.330100
     15 O1          -4.0590     2.4250    -1.7230 o          1 6OX      -0.524500
     16 O2          -6.0410     2.5860    -0.2080 o          1 6OX      -0.524500
     17 C22         -4.6690     0.3080    -0.2820 ca         1 6OX      -0.208500
     18 C23         -5.5350    -0.5050     0.4570 ca         1 6OX      -0.032300
     19 O4          -7.6200    -1.2030    -0.3730 oh         1 6OX      -0.658000
     20 C9          -4.9400    -1.6030     1.0630 ca         1 6OX       0.178000
     21 F1          -5.7160    -2.4360     1.7660 f          1 6OX      -0.168000
     22 C8          -3.5910    -1.8860     1.0020 ca         1 6OX      -0.097000
     23 C7          -2.7570    -1.0520     0.2700 cp         1 6OX      -0.017000
     24 C26         -0.6200    -1.0380    -0.9910 ca         1 6OX      -0.140000
     25 C27          0.7510    -1.1510    -1.0160 ca         1 6OX       0.189000
     26 F2           1.4010    -0.9260    -2.1580 f          1 6OX      -0.152000
     27 C11         -0.5920    -1.7030     1.3170 ca         1 6OX      -0.107000
     28 N2           2.8940    -1.4120     0.0910 na         1 6OX      -0.085300
     29 C18          6.2800    -2.5360    -0.6950 c3         1 6OX       0.170700
     30 C19          6.9960    -1.6450    -1.7110 c3         1 6OX      -0.113600
     31 C20          7.1700    -2.7460     0.5320 c3         1 6OX      -0.113600
     32 O3           5.9330    -3.7800    -1.2770 oh         1 6OX      -0.666000
     33 N1           4.9500    -0.6890     0.3340 nd         1 6OX      -0.673000
     34 C28          4.2870     1.9180     1.3190 c3         1 6OX      -0.082100
     35 C29          3.0630     0.3620     2.7430 c3         1 6OX      -0.082100
     36 CL1          3.4640     1.3850    -1.7480 cl         1 6OX      -0.191500
     37 C21          0.9810     2.2150    -1.5500 ca         1 6OX      -0.110500
     38 CL2          0.3520     1.5100     2.8290 cl         1 6OX      -0.191500
     39 H1          -1.0620     2.8690    -1.4940 ha         1 6OX       0.143000
     40 H2          -1.2850     2.4260     0.9220 ha         1 6OX       0.135500
     41 H3          -2.6750     0.7150    -0.9410 ha         1 6OX       0.153000
     42 H4           1.3330    -2.1110     2.1560 ha         1 6OX       0.137000
     43 H5           3.3160    -3.2740    -0.8890 h4         1 6OX       0.172000
     44 H6          -7.3380    -0.5700     1.5910 h1         1 6OX       0.053200
     45 H7          -7.3120     0.7050     0.3970 h1         1 6OX       0.053200
     46 H8          -7.0770     0.5900    -2.0510 h1         1 6OX       0.109033
     47 H9          -6.6370     2.0530    -2.9730 h1         1 6OX       0.109033
     48 H10         -5.6430     0.5770    -3.1110 h1         1 6OX       0.109033
     49 H11         -8.5750    -1.1180    -0.2870 ho         1 6OX       0.454000
     50 H12         -3.2090    -2.7650     1.5050 ha         1 6OX       0.142000
     51 H13         -1.1450    -0.7630    -1.8970 ha         1 6OX       0.141000
     52 H14         -1.1050    -1.9140     2.2450 ha         1 6OX       0.128000
     53 H15          7.2130    -0.6670    -1.2820 hc         1 6OX       0.043533
     54 H16          7.9440    -2.0950    -2.0150 hc         1 6OX       0.043533
     55 H17          6.3840    -1.4960    -2.6010 hc         1 6OX       0.043533
     56 H18          6.6800    -3.3840     1.2690 hc         1 6OX       0.043533
     57 H19          8.1150    -3.2160     0.2450 hc         1 6OX       0.043533
     58 H20          7.4050    -1.7940     1.0080 hc         1 6OX       0.043533
     59 H21          6.7430    -4.2050    -1.5790 ho         1 6OX       0.443000
     60 H22          3.9040     2.7700     1.8800 hc         1 6OX       0.047533
     61 H23          5.1700     1.5490     1.8380 hc         1 6OX       0.047533
     62 H24          4.6020     2.2670     0.3410 hc         1 6OX       0.047533
     63 H25          2.2800    -0.3710     2.9020 hc         1 6OX       0.047533
     64 H26          4.0100    -0.1040     3.0150 hc         1 6OX       0.047533
     65 H27          2.9070     1.1940     3.4260 hc         1 6OX       0.047533
     66 H28          1.1100     2.4060    -2.6060 ha         1 6OX       0.135500
     67 C24         -7.0270    -0.3330     0.5690 c3         1 6OX       0.185900
     68 S1          -5.2310     1.7880    -1.1250 sy         1 6OX       1.043500
@<TRIPOS>BOND
     1     1     2 ar  
     2     1    37 ar  
     3     1    39 1   
     4     2     6 ar  
     5     2    40 1   
     6     3     4 ar  
     7     3    36 1   
     8     3    37 ar  
     9     4     5 1   
    10     4     6 ar  
    11     5     9 1   
    12     5    34 1   
    13     5    35 1   
    14     6    38 1   
    15     7    17 ar  
    16     7    23 ar  
    17     7    41 1   
    18     8    23 1   
    19     8    24 ar  
    20     8    27 ar  
    21     9    28 1   
    22     9    33 2   
    23    10    11 ar  
    24    10    25 ar  
    25    10    28 1   
    26    11    27 ar  
    27    11    42 1   
    28    12    13 2   
    29    12    29 1   
    30    12    33 1   
    31    13    28 1   
    32    13    43 1   
    33    14    46 1   
    34    14    47 1   
    35    14    48 1   
    36    14    68 1   
    37    15    68 2   
    38    16    68 2   
    39    17    18 ar  
    40    17    68 1   
    41    18    20 ar  
    42    18    67 1   
    43    19    49 1   
    44    19    67 1   
    45    20    21 1   
    46    20    22 ar  
    47    22    23 ar  
    48    22    50 1   
    49    24    25 ar  
    50    24    51 1   
    51    25    26 1   
    52    27    52 1   
    53    29    30 1   
    54    29    31 1   
    55    29    32 1   
    56    30    53 1   
    57    30    54 1   
    58    30    55 1   
    59    31    56 1   
    60    31    57 1   
    61    31    58 1   
    62    32    59 1   
    63    34    60 1   
    64    34    61 1   
    65    34    62 1   
    66    35    63 1   
    67    35    64 1   
    68    35    65 1   
    69    37    66 1   
    70    44    67 1   
    71    45    67 1   
@<TRIPOS>SUBSTRUCTURE
     1 6OX         1 TEMP              0 ****  ****    0 ROOT
