@<TRIPOS>MOLECULE
6OY
   87    90     1     0     0
SMALL
No Charge or Current Charge


@<TRIPOS>ATOM
      1 C           -6.0910     3.6290     0.8120 c3         1 6OY      -0.097100
      2 N           -3.3270    -6.4410    -1.0680 ns         1 6OY      -0.512900
      3 O           -5.3690     1.6350    -0.3020 os         1 6OY      -0.454100
      4 C1          -6.4760     2.5440    -0.2060 c3         1 6OY       0.167600
      5 N1          -2.0140    -1.6190     0.4870 ns         1 6OY      -0.503900
      6 C2          -5.4730     0.5780    -1.1670 c          1 6OY       0.594100
      7 N2           0.9890     0.5830     0.0970 n          1 6OY      -0.389800
      8 C3          -4.2100    -0.2840    -1.1540 c3         1 6OY      -0.135400
      9 N3           4.6580     0.1880    -0.3540 ns         1 6OY      -0.482900
     10 O3          -0.8820    -1.0950    -1.4360 o          1 6OY      -0.597100
     11 C4          -4.3780    -1.5330    -0.2460 c3         1 6OY      -0.078400
     12 N4           6.9530    -1.0730     0.6450 nc         1 6OY      -0.356300
     13 O4           2.3450    -1.2530     0.2160 o          1 6OY      -0.616100
     14 C5          -3.0990    -2.4050    -0.1080 c3         1 6OY       0.111700
     15 O5           5.7060     2.2120    -0.2150 o          1 6OY      -0.594100
     16 C6          -3.3050    -3.6920     0.7350 c3         1 6OY      -0.081400
     17 O6           8.2710    -1.3600     1.1640 os         1 6OY      -0.059700
     18 C7          -4.3120    -4.7420     0.1730 c5         1 6OY      -0.151700
     19 C8          -4.3510    -6.0660     0.9860 c5         1 6OY      -0.092400
     20 C9          -3.2090    -6.8850     0.3200 c5         1 6OY       0.100000
     21 C10         -3.9070    -5.2120    -1.2290 c          1 6OY       0.564000
     22 C12         -0.1710    -0.1000     0.7500 c5         1 6OY       0.024700
     23 C13         -1.0130     1.1210     1.2490 c5         1 6OY      -0.077400
     24 C14         -0.7340     2.1580     0.1310 c5         1 6OY      -0.035400
     25 C15          0.8080     2.0510    -0.0080 c5         1 6OY       0.112000
     26 C17          3.3620     0.6500    -0.9080 c3         1 6OY       0.043700
     27 C18          3.3070     0.4260    -2.4580 c3         1 6OY      -0.069700
     28 C19          1.9840     0.8940    -3.1110 c3         1 6OY      -0.094600
     29 C20          4.5090     1.0600    -3.2040 c3         1 6OY      -0.094600
     30 C22          6.9320     0.2470     0.4750 cd         1 6OY       0.219500
     31 C23          8.1590     0.8320     0.8540 cd         1 6OY      -0.202000
     32 C24          8.9610    -0.1790     1.2730 cc         1 6OY       0.172300
     33 C25         10.3700    -0.1860     1.7890 c3         1 6OY      -0.135400
     34 C26         -1.1340     3.5590     0.6140 ca         1 6OY      -0.079300
     35 C27         -2.1070     4.2770    -0.1130 ca         1 6OY      -0.102500
     36 C28         -2.5090     5.5610     0.2920 ca         1 6OY      -0.109000
     37 C29         -1.9450     6.1460     1.4360 ca         1 6OY      -0.106000
     38 C30         -0.9790     5.4440     2.1730 ca         1 6OY      -0.109000
     39 C31         -0.5760     4.1600     1.7670 ca         1 6OY      -0.102500
     40 H           -5.1960     4.1690     0.4800 hc         1 6OY       0.046033
     41 HA          -6.9070     4.3520     0.9240 hc         1 6OY       0.046033
     42 HB          -5.8880     3.1830     1.7930 hc         1 6OY       0.046033
     43 HN          -3.0510    -6.9660    -1.8900 hn         1 6OY       0.328500
     44 H1          -7.3820     2.0250     0.1350 h1         1 6OY       0.047700
     45 H1A         -6.6860     3.0120    -1.1780 h1         1 6OY       0.047700
     46 HN1         -2.0320    -1.4630     1.4880 hn         1 6OY       0.309500
     47 H3          -3.9870    -0.6120    -2.1750 hc         1 6OY       0.075700
     48 H3A         -3.3900     0.3250    -0.7610 hc         1 6OY       0.075700
     49 HN3          4.7700    -0.8020    -0.1570 hn         1 6OY       0.348500
     50 H4          -4.7000    -1.2120     0.7530 hc         1 6OY       0.062200
     51 H4A         -5.1920    -2.1400    -0.6590 hc         1 6OY       0.062200
     52 H5          -2.7880    -2.7110    -1.1170 h1         1 6OY       0.098700
     53 H6          -2.3250    -4.1690     0.8570 hc         1 6OY       0.053700
     54 H6A         -3.6200    -3.3990     1.7450 hc         1 6OY       0.053700
     55 H7          -5.2920    -4.2590     0.1180 hc         1 6OY       0.083700
     56 H8          -4.2030    -5.9250     2.0630 hc         1 6OY       0.058700
     57 H8A         -5.3140    -6.5740     0.8530 hc         1 6OY       0.058700
     58 H9          -3.3580    -7.9670     0.4360 h1         1 6OY       0.046200
     59 H9A         -2.2280    -6.6240     0.7400 h1         1 6OY       0.046200
     60 H12          0.1450    -0.7340     1.5890 h1         1 6OY       0.074700
     61 H13         -2.0820     0.9090     1.3700 hc         1 6OY       0.061700
     62 H13A        -0.6460     1.4550     2.2260 hc         1 6OY       0.061700
     63 H14         -1.2300     1.8780    -0.8070 hc         1 6OY       0.082700
     64 H15          1.3510     2.5580     0.8000 h1         1 6OY       0.059200
     65 H15A         1.1490     2.4640    -0.9640 h1         1 6OY       0.059200
     66 H17          3.2690     1.7230    -0.7040 h1         1 6OY       0.090700
     67 H18          3.3700    -0.6580    -2.6240 hc         1 6OY       0.066700
     68 H19          1.8680     1.9810    -3.0280 hc         1 6OY       0.041367
     69 H19A         1.9720     0.6380    -4.1780 hc         1 6OY       0.041367
     70 H19B         1.1140     0.4110    -2.6530 hc         1 6OY       0.041367
     71 H20          5.4590     0.6100    -2.8900 hc         1 6OY       0.041367
     72 H20A         4.4200     0.9060    -4.2870 hc         1 6OY       0.041367
     73 H20B         4.5590     2.1400    -3.0170 hc         1 6OY       0.041367
     74 H23          8.4120     1.8850     0.8170 ha         1 6OY       0.170000
     75 H25         10.7730     0.8320     1.8400 hc         1 6OY       0.065033
     76 H25A        10.4120    -0.6200     2.7950 hc         1 6OY       0.065033
     77 H25B        11.0200    -0.7770     1.1340 hc         1 6OY       0.065033
     78 H27         -2.5580     3.8370    -1.0000 ha         1 6OY       0.113500
     79 H28         -3.2600     6.1010    -0.2800 ha         1 6OY       0.114500
     80 H29         -2.2570     7.1390     1.7520 ha         1 6OY       0.114000
     81 H30         -0.5420     5.8930     3.0620 ha         1 6OY       0.114500
     82 H31          0.1700     3.6360     2.3590 ha         1 6OY       0.113500
     83 C11         -1.0230    -0.9740    -0.2260 c          1 6OY       0.600100
     84 O1          -6.4490     0.3460    -1.8670 o          1 6OY      -0.494000
     85 O2          -4.2000    -4.7420    -2.3160 o          1 6OY      -0.558000
     86 C16          2.2090    -0.0880    -0.1480 c          1 6OY       0.599100
     87 C21          5.7400     0.9960    -0.0560 c          1 6OY       0.529600
@<TRIPOS>BOND
     1     1     4 1   
     2     1    40 1   
     3     1    41 1   
     4     1    42 1   
     5     2    20 1   
     6     2    21 1   
     7     2    43 1   
     8     3     4 1   
     9     3     6 1   
    10     4    44 1   
    11     4    45 1   
    12     5    14 1   
    13     5    46 1   
    14     5    83 1   
    15     6     8 1   
    16     6    84 2   
    17     7    22 1   
    18     7    25 1   
    19     7    86 1   
    20     8    11 1   
    21     8    47 1   
    22     8    48 1   
    23     9    26 1   
    24     9    49 1   
    25     9    87 1   
    26    10    83 2   
    27    11    14 1   
    28    11    50 1   
    29    11    51 1   
    30    12    17 1   
    31    12    30 2   
    32    13    86 2   
    33    14    16 1   
    34    14    52 1   
    35    15    87 2   
    36    16    18 1   
    37    16    53 1   
    38    16    54 1   
    39    17    32 1   
    40    18    19 1   
    41    18    21 1   
    42    18    55 1   
    43    19    20 1   
    44    19    56 1   
    45    19    57 1   
    46    20    58 1   
    47    20    59 1   
    48    21    85 2   
    49    22    23 1   
    50    22    60 1   
    51    22    83 1   
    52    23    24 1   
    53    23    61 1   
    54    23    62 1   
    55    24    25 1   
    56    24    34 1   
    57    24    63 1   
    58    25    64 1   
    59    25    65 1   
    60    26    27 1   
    61    26    66 1   
    62    26    86 1   
    63    27    28 1   
    64    27    29 1   
    65    27    67 1   
    66    28    68 1   
    67    28    69 1   
    68    28    70 1   
    69    29    71 1   
    70    29    72 1   
    71    29    73 1   
    72    30    31 1   
    73    30    87 1   
    74    31    32 2   
    75    31    74 1   
    76    32    33 1   
    77    33    75 1   
    78    33    76 1   
    79    33    77 1   
    80    34    35 ar  
    81    34    39 ar  
    82    35    36 ar  
    83    35    78 1   
    84    36    37 ar  
    85    36    79 1   
    86    37    38 ar  
    87    37    80 1   
    88    38    39 ar  
    89    38    81 1   
    90    39    82 1   
@<TRIPOS>SUBSTRUCTURE
     1 6OY         1 TEMP              0 ****  ****    0 ROOT
