@<TRIPOS>MOLECULE
6OY
   87    90     1     0     0
SMALL
bcc


@<TRIPOS>ATOM
      1 C           -8.1130     2.7640     1.6820 c3         1 6OY      -0.097100
      2 N           -2.9810    -5.1840    -2.6170 ns         1 6OY      -0.579900
      3 O           -6.5790     0.9830     1.3080 os         1 6OY      -0.430900
      4 C1          -7.8140     1.3120     1.9640 c3         1 6OY       0.144400
      5 N1          -1.9580    -1.0560     0.5210 ns         1 6OY      -0.570900
      6 C2          -6.1230    -0.2570     1.4170 c          1 6OY       0.643100
      7 N2           0.9760     0.9100    -0.1260 n          1 6OY      -0.456800
      8 C3          -4.8190    -0.4270     0.6840 c3         1 6OY      -0.135400
      9 N3           4.2240    -0.2280    -0.2090 ns         1 6OY      -0.549900
     10 O3          -1.2100    -0.2190    -1.4470 o          1 6OY      -0.597100
     11 C4          -4.2520    -1.8340     0.7820 c3         1 6OY      -0.078400
     12 N4           6.1810    -1.3810     1.3390 nc         1 6OY      -0.356300
     13 O4           1.6170    -1.2290     0.0450 o          1 6OY      -0.616100
     14 C5          -2.9490    -1.9810     0.0010 c3         1 6OY       0.111700
     15 O5           5.2880     1.7690     0.0250 o          1 6OY      -0.594100
     16 C6          -2.3720    -3.4000     0.0510 c3         1 6OY      -0.081400
     17 O6           7.2480    -1.6420     2.1220 os         1 6OY      -0.104100
     18 C7          -3.2940    -4.5310    -0.4180 c5         1 6OY      -0.151700
     19 C8          -2.5720    -5.8820    -0.4440 c5         1 6OY      -0.092400
     20 C9          -2.0420    -5.9990    -1.8760 c5         1 6OY       0.100000
     21 C10         -3.7070    -4.3370    -1.8710 c          1 6OY       0.706500
     22 C12         -0.2580     0.6410     0.5860 c5         1 6OY       0.024700
     23 C13         -0.8820     2.0320     0.7550 c5         1 6OY      -0.077400
     24 C14         -0.3410     2.8240    -0.4380 c5         1 6OY      -0.035400
     25 C15          1.0890     2.2950    -0.5650 c5         1 6OY       0.112000
     26 C17          3.1500     0.2180    -1.0680 c3         1 6OY       0.043700
     27 C18          3.1810    -0.4840    -2.4370 c3         1 6OY      -0.069700
     28 C19          2.0590     0.0390    -3.3300 c3         1 6OY      -0.094600
     29 C20          4.5320    -0.2940    -3.1140 c3         1 6OY      -0.094600
     30 C22          6.2190    -0.1010     1.0950 cd         1 6OY       0.284800
     31 C23          7.3270     0.5110     1.7190 cd         1 6OY      -0.350600
     32 C24          7.9400    -0.5180     2.3560 cc         1 6OY       0.282000
     33 C25          9.1520    -0.6150     3.2020 c3         1 6OY      -0.135400
     34 C26         -0.4300     4.3180    -0.3010 ca         1 6OY      -0.079300
     35 C27         -1.1260     5.0690    -1.2430 ca         1 6OY      -0.120500
     36 C28         -1.2200     6.4510    -1.1260 ca         1 6OY      -0.127000
     37 C29         -0.6150     7.1020    -0.0610 ca         1 6OY      -0.124000
     38 C30          0.0870     6.3620     0.8840 ca         1 6OY      -0.127000
     39 C31          0.1770     4.9830     0.7630 ca         1 6OY      -0.120500
     40 H           -8.2360     2.9480     0.6140 hc         1 6OY       0.046033
     41 HA          -9.0420     3.0410     2.1780 hc         1 6OY       0.046033
     42 HB          -7.3260     3.4180     2.0590 hc         1 6OY       0.046033
     43 HN          -3.0070    -5.1650    -3.6250 hn         1 6OY       0.328500
     44 H1          -7.7170     1.1350     3.0380 h1         1 6OY       0.047700
     45 H1A         -8.6140     0.6700     1.5900 h1         1 6OY       0.047700
     46 HN1         -1.7800    -1.0940     1.5140 hn         1 6OY       0.309500
     47 H3          -4.9780    -0.1550    -0.3650 hc         1 6OY       0.075700
     48 H3A         -4.1130     0.3100     1.0760 hc         1 6OY       0.075700
     49 HN3          4.2420    -1.2040     0.0470 hn         1 6OY       0.348500
     50 H4          -4.0860    -2.1080     1.8290 hc         1 6OY       0.062200
     51 H4A         -4.9780    -2.5430     0.3850 hc         1 6OY       0.062200
     52 H5          -3.1300    -1.6980    -1.0360 h1         1 6OY       0.098700
     53 H6          -1.4510    -3.4100    -0.5390 hc         1 6OY       0.053700
     54 H6A         -2.0790    -3.6210     1.0820 hc         1 6OY       0.053700
     55 H7          -4.1820    -4.5660     0.2150 hc         1 6OY       0.083700
     56 H8          -1.7800    -5.9590     0.2990 hc         1 6OY       0.058700
     57 H8A         -3.2860    -6.6850    -0.2540 hc         1 6OY       0.058700
     58 H9          -2.0450    -7.0270    -2.2360 h1         1 6OY       0.046200
     59 H9A         -1.0220    -5.6170    -1.9750 h1         1 6OY       0.046200
     60 H12         -0.0480     0.1880     1.5590 h1         1 6OY       0.074700
     61 H13         -1.9720     2.0080     0.7860 hc         1 6OY       0.061700
     62 H13A        -0.5380     2.4670     1.6960 hc         1 6OY       0.061700
     63 H14         -0.8890     2.5190    -1.3320 hc         1 6OY       0.082700
     64 H15          1.7770     2.8510     0.0790 h1         1 6OY       0.059200
     65 H15A         1.4460     2.3720    -1.5900 h1         1 6OY       0.059200
     66 H17          3.2880     1.2880    -1.2210 h1         1 6OY       0.090700
     67 H18          3.0210    -1.5540    -2.2660 hc         1 6OY       0.066700
     68 H19          2.2130     1.0940    -3.5680 hc         1 6OY       0.041367
     69 H19A         2.0420    -0.5090    -4.2730 hc         1 6OY       0.041367
     70 H19B         1.0720    -0.0620    -2.8770 hc         1 6OY       0.041367
     71 H20          5.3490    -0.7270    -2.5370 hc         1 6OY       0.041367
     72 H20A         4.5330    -0.7780    -4.0920 hc         1 6OY       0.041367
     73 H20B         4.7500     0.7650    -3.2690 hc         1 6OY       0.041367
     74 H23          7.6190     1.5460     1.6980 ha         1 6OY       0.188000
     75 H25          9.3050    -1.6300     3.5640 hc         1 6OY       0.065033
     76 H25A        10.0360    -0.3150     2.6390 hc         1 6OY       0.065033
     77 H25B         9.0690     0.0470     4.0620 hc         1 6OY       0.065033
     78 H27         -1.5980     4.5690    -2.0800 ha         1 6OY       0.131500
     79 H28         -1.7660     7.0170    -1.8700 ha         1 6OY       0.132500
     80 H29         -0.6880     8.1770     0.0350 ha         1 6OY       0.132000
     81 H30          0.5640     6.8600     1.7180 ha         1 6OY       0.132500
     82 H31          0.7270     4.4210     1.5100 ha         1 6OY       0.131500
     83 C11         -1.1690    -0.2730    -0.2280 c          1 6OY       0.667100
     84 O1          -6.6930    -1.1250     2.0320 o          1 6OY      -0.543000
     85 O2          -4.5300    -3.5370    -2.2900 o          1 6OY      -0.633500
     86 C16          1.8410    -0.0880    -0.3410 c          1 6OY       0.666100
     87 C21          5.1940     0.5730     0.2500 c          1 6OY       0.596600
@<TRIPOS>BOND
     1     1     4 1   
     2     1    40 1   
     3     1    41 1   
     4     1    42 1   
     5     2    20 1   
     6     2    21 1   
     7     2    43 1   
     8     3     4 1   
     9     3     6 1   
    10     4    44 1   
    11     4    45 1   
    12     5    14 1   
    13     5    46 1   
    14     5    83 1   
    15     6     8 1   
    16     6    84 2   
    17     7    22 1   
    18     7    25 1   
    19     7    86 1   
    20     8    11 1   
    21     8    47 1   
    22     8    48 1   
    23     9    26 1   
    24     9    49 1   
    25     9    87 1   
    26    10    83 2   
    27    11    14 1   
    28    11    50 1   
    29    11    51 1   
    30    12    17 1   
    31    12    30 2   
    32    13    86 2   
    33    14    16 1   
    34    14    52 1   
    35    15    87 2   
    36    16    18 1   
    37    16    53 1   
    38    16    54 1   
    39    17    32 1   
    40    18    19 1   
    41    18    21 1   
    42    18    55 1   
    43    19    20 1   
    44    19    56 1   
    45    19    57 1   
    46    20    58 1   
    47    20    59 1   
    48    21    85 2   
    49    22    23 1   
    50    22    60 1   
    51    22    83 1   
    52    23    24 1   
    53    23    61 1   
    54    23    62 1   
    55    24    25 1   
    56    24    34 1   
    57    24    63 1   
    58    25    64 1   
    59    25    65 1   
    60    26    27 1   
    61    26    66 1   
    62    26    86 1   
    63    27    28 1   
    64    27    29 1   
    65    27    67 1   
    66    28    68 1   
    67    28    69 1   
    68    28    70 1   
    69    29    71 1   
    70    29    72 1   
    71    29    73 1   
    72    30    31 1   
    73    30    87 1   
    74    31    32 2   
    75    31    74 1   
    76    32    33 1   
    77    33    75 1   
    78    33    76 1   
    79    33    77 1   
    80    34    35 ar  
    81    34    39 ar  
    82    35    36 ar  
    83    35    78 1   
    84    36    37 ar  
    85    36    79 1   
    86    37    38 ar  
    87    37    80 1   
    88    38    39 ar  
    89    38    81 1   
    90    39    82 1   
@<TRIPOS>SUBSTRUCTURE
     1 6OY         1 TEMP              0 ****  ****    0 ROOT
