@<TRIPOS>MOLECULE
6OZ
   40    42     1     0     0
SMALL
bcc


@<TRIPOS>ATOM
      1 C01         -3.4300    -0.3280    -0.0430 ca         1 6OZ      -0.059300
      2 C02         -1.0370    -0.2470    -0.6770 cc         1 6OZ       0.321600
      3 C04         -3.2040    -0.1820     1.3270 ca         1 6OZ      -0.119500
      4 C05         -4.1720     0.3480     2.1650 ca         1 6OZ      -0.130500
      5 C06         -5.3980     0.7510     1.6470 ca         1 6OZ      -0.130000
      6 C07         -5.6360     0.6150     0.2890 ca         1 6OZ      -0.130500
      7 N09          0.3200     1.3660    -0.5880 na         1 6OZ       0.009400
      8 C11          0.2170    -0.7940    -0.3550 cc         1 6OZ      -0.292300
      9 C15          3.4720     1.1510    -0.5420 cc         1 6OZ       0.374600
     10 C16          3.3000     2.2030    -1.5870 c3         1 6OZ      -0.128400
     11 C18          2.4950     0.3490    -0.0210 cd         1 6OZ      -0.097400
     12 C03         -2.3470    -0.9610    -0.9130 c3         1 6OZ      -0.020000
     13 C08         -4.6600     0.0800    -0.5470 ca         1 6OZ      -0.119500
     14 N10         -0.9520     1.0660    -0.8130 nd         1 6OZ      -0.502800
     15 C12          1.0780     0.2870    -0.3070 cd         1 6OZ      -0.024300
     16 N13          4.7240     0.9240    -0.0360 nc         1 6OZ      -0.648000
     17 C14          4.7410    -0.0230     0.8440 cd         1 6OZ       0.445700
     18 S17          3.1910    -0.7230     1.1420 ss         1 6OZ      -0.163300
     19 H1          -2.2510    -0.4800     1.7500 ha         1 6OZ       0.129500
     20 H2          -3.9680     0.4510     3.2230 ha         1 6OZ       0.127000
     21 H3          -6.1570     1.1670     2.2980 ha         1 6OZ       0.128000
     22 H4          -6.5830     0.9290    -0.1300 ha         1 6OZ       0.127000
     23 H5           0.6090     2.3310    -0.5840 hn         1 6OZ       0.323700
     24 H6           0.4750    -1.8270    -0.1960 ha         1 6OZ       0.166000
     25 H7           3.2200     3.1960    -1.1400 hc         1 6OZ       0.053367
     26 H8           4.1640     2.2150    -2.2500 hc         1 6OZ       0.053367
     27 H9           2.4120     2.0390    -2.1950 hc         1 6OZ       0.053367
     28 H10          6.1280    -1.5610     1.3780 hc         1 6OZ       0.060700
     29 H11          6.8230     0.0560     1.2060 hc         1 6OZ       0.060700
     30 H12          5.8670    -0.3580     2.6340 hc         1 6OZ       0.060700
     31 H13         -1.9350    -2.5740     0.5150 hc         1 6OZ       0.039867
     32 H14         -3.1730    -2.9490    -0.6820 hc         1 6OZ       0.039867
     33 H15         -1.4760    -2.9440    -1.1490 hc         1 6OZ       0.039867
     34 H16         -1.8470    -1.3060    -2.9860 hc         1 6OZ       0.039867
     35 H17         -3.5690    -1.4410    -2.6580 hc         1 6OZ       0.039867
     36 H18         -2.8020     0.1520    -2.7400 hc         1 6OZ       0.039867
     37 H19         -4.8800    -0.0080    -1.6030 ha         1 6OZ       0.129500
     38 C19          5.9570    -0.4990     1.5560 c3         1 6OZ      -0.132400
     39 C20         -2.2210    -2.4410    -0.5290 c3         1 6OZ      -0.082100
     40 C21         -2.6680    -0.8790    -2.4100 c3         1 6OZ      -0.082100
@<TRIPOS>BOND
     1     1     3 ar  
     2     1    12 1   
     3     1    13 ar  
     4     2     8 1   
     5     2    12 1   
     6     2    14 2   
     7     3     4 ar  
     8     3    19 1   
     9     4     5 ar  
    10     4    20 1   
    11     5     6 ar  
    12     5    21 1   
    13     6    13 ar  
    14     6    22 1   
    15     7    14 1   
    16     7    15 1   
    17     7    23 1   
    18     8    15 2   
    19     8    24 1   
    20     9    10 1   
    21     9    11 2   
    22     9    16 1   
    23    10    25 1   
    24    10    26 1   
    25    10    27 1   
    26    11    15 1   
    27    11    18 1   
    28    12    39 1   
    29    12    40 1   
    30    13    37 1   
    31    16    17 2   
    32    17    18 1   
    33    17    38 1   
    34    28    38 1   
    35    29    38 1   
    36    30    38 1   
    37    31    39 1   
    38    32    39 1   
    39    33    39 1   
    40    34    40 1   
    41    35    40 1   
    42    36    40 1   
@<TRIPOS>SUBSTRUCTURE
     1 6OZ         1 TEMP              0 ****  ****    0 ROOT
