@<TRIPOS>MOLECULE
6OZ
   40    42     1     0     0
SMALL
No Charge or Current Charge


@<TRIPOS>ATOM
      1 C01         -3.4160    -0.3300    -0.0800 ca         1 6OZ      -0.059300
      2 C02         -1.0270    -0.2300    -0.8510 cc         1 6OZ       0.256300
      3 C04         -3.1320     0.0540     1.2520 ca         1 6OZ      -0.101500
      4 C05         -4.0950     0.7060     2.0400 ca         1 6OZ      -0.112500
      5 C06         -5.3630     0.9870     1.5110 ca         1 6OZ      -0.112000
      6 C07         -5.6660     0.6120     0.1930 ca         1 6OZ      -0.112500
      7 N09          0.3700     1.3770    -1.0440 na         1 6OZ       0.009800
      8 C11          0.2120    -0.7090    -0.3740 cc         1 6OZ      -0.209000
      9 C15          3.3940     1.2900    -0.2410 cc         1 6OZ       0.309300
     10 C16          3.1550     2.6770    -0.7740 c3         1 6OZ      -0.128400
     11 C18          2.4870     0.2500    -0.1190 cd         1 6OZ      -0.177000
     12 C03         -2.3170    -1.0540    -0.8990 c3         1 6OZ      -0.020000
     13 C08         -4.7040    -0.0410    -0.5970 ca         1 6OZ      -0.101500
     14 N10         -0.9630     1.0290    -1.2660 nd         1 6OZ      -0.502800
     15 C12          1.0950     0.3150    -0.4970 cd         1 6OZ      -0.075000
     16 N13          4.6660     0.9950     0.1850 nc         1 6OZ      -0.648000
     17 C14          4.7210    -0.2550     0.6240 cd         1 6OZ       0.445700
     18 S17          3.2320    -1.1860     0.5600 ss         1 6OZ      -0.018400
     19 H1          -2.1550    -0.1530     1.6830 ha         1 6OZ       0.111500
     20 H2          -3.8560     0.9940     3.0610 ha         1 6OZ       0.109000
     21 H3          -6.1100     1.4920     2.1200 ha         1 6OZ       0.110000
     22 H4          -6.6490     0.8270    -0.2180 ha         1 6OZ       0.109000
     23 H5           0.7220     2.3040    -1.2700 hn         1 6OZ       0.374000
     24 H6           0.4110    -1.7010     0.0130 ha         1 6OZ       0.148000
     25 H7           2.4020     3.2010    -0.1750 hc         1 6OZ       0.053367
     26 H8           4.0710     3.2800    -0.7450 hc         1 6OZ       0.053367
     27 H9           2.8210     2.6430    -1.8170 hc         1 6OZ       0.053367
     28 H10          5.8640    -1.8790     1.4570 hc         1 6OZ       0.060700
     29 H11          6.7840    -0.8110     0.3830 hc         1 6OZ       0.060700
     30 H12          6.3560    -0.2720     2.0190 hc         1 6OZ       0.060700
     31 H13         -1.8090    -2.4140     0.7640 hc         1 6OZ       0.039867
     32 H14         -3.0860    -3.0220    -0.3000 hc         1 6OZ       0.039867
     33 H15         -1.3990    -3.0570    -0.8410 hc         1 6OZ       0.039867
     34 H16         -1.8720    -1.7100    -2.9460 hc         1 6OZ       0.039867
     35 H17         -3.5740    -1.9030    -2.5030 hc         1 6OZ       0.039867
     36 H18         -2.9240    -0.2890    -2.8750 hc         1 6OZ       0.039867
     37 H19         -4.9830    -0.3160    -1.6100 ha         1 6OZ       0.111500
     38 C19          6.0010    -0.8360     1.1490 c3         1 6OZ      -0.132400
     39 C20         -2.1380    -2.4700    -0.2810 c3         1 6OZ      -0.082100
     40 C21         -2.7000    -1.2490    -2.3950 c3         1 6OZ      -0.082100
@<TRIPOS>BOND
     1     1     3 ar  
     2     1    12 1   
     3     1    13 ar  
     4     2     8 1   
     5     2    12 1   
     6     2    14 2   
     7     3     4 ar  
     8     3    19 1   
     9     4     5 ar  
    10     4    20 1   
    11     5     6 ar  
    12     5    21 1   
    13     6    13 ar  
    14     6    22 1   
    15     7    14 1   
    16     7    15 1   
    17     7    23 1   
    18     8    15 2   
    19     8    24 1   
    20     9    10 1   
    21     9    11 2   
    22     9    16 1   
    23    10    25 1   
    24    10    26 1   
    25    10    27 1   
    26    11    15 1   
    27    11    18 1   
    28    12    39 1   
    29    12    40 1   
    30    13    37 1   
    31    16    17 2   
    32    17    18 1   
    33    17    38 1   
    34    28    38 1   
    35    29    38 1   
    36    30    38 1   
    37    31    39 1   
    38    32    39 1   
    39    33    39 1   
    40    34    40 1   
    41    35    40 1   
    42    36    40 1   
@<TRIPOS>SUBSTRUCTURE
     1 6OZ         1 TEMP              0 ****  ****    0 ROOT
