@<TRIPOS>MOLECULE
6P0
   43    46     1     0     0
SMALL
bcc


@<TRIPOS>ATOM
      1 C01         -1.9130     3.3680     0.1890 cx         1 6P0      -0.109400
      2 C02         -1.5360     2.0140    -0.3570 cx         1 6P0      -0.104000
      3 C04          2.8900    -1.5070     0.6310 cc         1 6P0      -0.103300
      4 C05          2.9620    -0.2800    -0.0000 cd         1 6P0      -0.217300
      5 C06          4.3210    -0.1660    -0.3810 cd         1 6P0       0.333600
      6 C10          4.9940     0.9490    -1.1040 c3         1 6P0      -0.127400
      7 C11          1.8550     0.6280    -0.2130 cd         1 6P0       0.007700
      8 C15          0.4970     0.4450    -0.0220 cc         1 6P0      -0.305300
      9 C16         -2.4390     0.8550    -0.0860 ca         1 6P0      -0.083300
     10 C17         -2.8350     0.0090    -1.1230 ca         1 6P0      -0.079500
     11 C18         -3.6290    -1.0970    -0.8850 ca         1 6P0      -0.194500
     12 C19         -4.0510    -1.3910     0.4140 ca         1 6P0       0.137100
     13 C20         -3.6660    -0.5570     1.4600 ca         1 6P0      -0.194500
     14 C21         -2.8660     0.5510     1.1980 ca         1 6P0      -0.079500
     15 C23         -5.2550    -2.8440     1.8530 c3         1 6P0       0.126700
     16 C03         -2.0270     3.1010    -1.2750 cx         1 6P0      -0.109400
     17 N07          4.9960    -1.2370    -0.0070 nc         1 6P0      -0.523800
     18 N08          4.1200    -2.0340     0.6000 na         1 6P0       0.116400
     19 C09          4.5490    -3.2990     1.1450 c3         1 6P0       0.044600
     20 N12          1.9850     1.8890    -0.6680 na         1 6P0      -0.001600
     21 N13          0.8240     2.5320    -0.7870 nd         1 6P0      -0.533800
     22 C14         -0.0940     1.6650    -0.3950 cc         1 6P0       0.360600
     23 O22         -4.8220    -2.4870     0.5560 os         1 6P0      -0.319900
     24 H1          -2.8250     3.4400     0.7700 hc         1 6P0       0.077200
     25 H2          -1.1070     4.0040     0.5320 hc         1 6P0       0.077200
     26 H4           5.0150     1.8640    -0.5080 hc         1 6P0       0.049367
     27 H5           6.0240     0.6860    -1.3360 hc         1 6P0       0.049367
     28 H6           4.4900     1.1800    -2.0450 hc         1 6P0       0.049367
     29 H7           0.0060    -0.4470     0.3310 ha         1 6P0       0.163000
     30 H8          -2.5180     0.2230    -2.1370 ha         1 6P0       0.135000
     31 H9          -3.9300    -1.7410    -1.7030 ha         1 6P0       0.138500
     32 H10         -3.9750    -0.7490     2.4780 ha         1 6P0       0.138500
     33 H11         -2.5760     1.1900     2.0230 ha         1 6P0       0.135000
     34 H12         -5.8360    -3.7570     1.7460 h1         1 6P0       0.039367
     35 H13         -4.4150    -3.0410     2.5250 h1         1 6P0       0.039367
     36 H14         -5.8900    -2.0750     2.3000 h1         1 6P0       0.039367
     37 H15         -3.0180     2.9830    -1.6940 hc         1 6P0       0.077200
     38 H16         -1.3070     3.5630    -1.9380 hc         1 6P0       0.077200
     39 H17          4.9820    -3.9180     0.3620 h1         1 6P0       0.058367
     40 H18          5.2870    -3.1430     1.9290 h1         1 6P0       0.058367
     41 H19          3.6890    -3.8120     1.5660 h1         1 6P0       0.058367
     42 H20          2.8370     2.3740    -0.9020 hn         1 6P0       0.319700
     43 H3           2.0600    -2.0200     1.0900 h4         1 6P0       0.178000
@<TRIPOS>BOND
     1     1     2 1   
     2     1    16 1   
     3     1    24 1   
     4     1    25 1   
     5     2     9 1   
     6     2    16 1   
     7     2    22 1   
     8     3     4 2   
     9     3    18 1   
    10     3    43 1   
    11     4     5 1   
    12     4     7 1   
    13     5     6 1   
    14     5    17 2   
    15     6    26 1   
    16     6    27 1   
    17     6    28 1   
    18     7     8 2   
    19     7    20 1   
    20     8    22 1   
    21     8    29 1   
    22     9    10 ar  
    23     9    14 ar  
    24    10    11 ar  
    25    10    30 1   
    26    11    12 ar  
    27    11    31 1   
    28    12    13 ar  
    29    12    23 1   
    30    13    14 ar  
    31    13    32 1   
    32    14    33 1   
    33    15    23 1   
    34    15    34 1   
    35    15    35 1   
    36    15    36 1   
    37    16    37 1   
    38    16    38 1   
    39    17    18 1   
    40    18    19 1   
    41    19    39 1   
    42    19    40 1   
    43    19    41 1   
    44    20    21 1   
    45    20    42 1   
    46    21    22 2   
@<TRIPOS>SUBSTRUCTURE
     1 6P0         1 TEMP              0 ****  ****    0 ROOT
