@<TRIPOS>MOLECULE
6P0
   43    46     1     0     0
SMALL
No Charge or Current Charge


@<TRIPOS>ATOM
      1 C01         -1.5190     3.0540     1.0430 cx         1 6P0      -0.109400
      2 C02         -1.4420     2.0150    -0.0590 cx         1 6P0      -0.104000
      3 C04          2.9710    -0.8370     1.2720 cc         1 6P0      -0.136000
      4 C05          2.9690    -0.1860     0.0730 cd         1 6P0      -0.152000
      5 C06          4.2050    -0.4350    -0.5680 cd         1 6P0       0.268300
      6 C10          4.6740     0.0640    -1.9080 c3         1 6P0      -0.127400
      7 C11          1.8530     0.6000    -0.3860 cd         1 6P0      -0.043000
      8 C15          0.6900     0.7970     0.2860 cc         1 6P0      -0.222000
      9 C16         -2.3950     0.8500    -0.0880 ca         1 6P0      -0.083300
     10 C17         -3.0380     0.5000    -1.2890 ca         1 6P0      -0.061500
     11 C18         -3.9230    -0.5910    -1.3270 ca         1 6P0      -0.176500
     12 C19         -4.1750    -1.3430    -0.1690 ca         1 6P0       0.137100
     13 C20         -3.5300    -0.9970     1.0380 ca         1 6P0      -0.176500
     14 C21         -2.6440     0.0950     1.0740 ca         1 6P0      -0.061500
     15 C23         -5.3780    -3.2360     0.8610 c3         1 6P0       0.149900
     16 C03         -1.9370     3.4160    -0.3590 cx         1 6P0      -0.109400
     17 N07          4.9860    -1.2090     0.1650 nc         1 6P0      -0.523800
     18 N08          4.2210    -1.4510     1.2930 na         1 6P0       0.137800
     19 C09          4.7550    -2.2940     2.3720 c3         1 6P0       0.073900
     20 N12          1.7310     1.3080    -1.5840 na         1 6P0      -0.001200
     21 N13          0.4940     1.9540    -1.6750 nd         1 6P0      -0.533800
     22 C14         -0.0970     1.6200    -0.5380 cc         1 6P0       0.295300
     23 O22         -5.0540    -2.4030    -0.2660 os         1 6P0      -0.343100
     24 H1          -2.3020     2.9550     1.7910 hc         1 6P0       0.077200
     25 H2          -0.5860     3.4710     1.4160 hc         1 6P0       0.077200
     26 H4           4.7030     1.1600    -1.9280 hc         1 6P0       0.049367
     27 H5           5.6830    -0.2960    -2.1420 hc         1 6P0       0.049367
     28 H6           4.0090    -0.2800    -2.7080 hc         1 6P0       0.049367
     29 H7           0.4010     0.4130     1.2560 ha         1 6P0       0.145000
     30 H8          -2.8480     1.0730    -2.1940 ha         1 6P0       0.117000
     31 H9          -4.4170    -0.8550    -2.2590 ha         1 6P0       0.120500
     32 H10         -3.7000    -1.5590     1.9520 ha         1 6P0       0.120500
     33 H11         -2.1490     0.3520     2.0080 ha         1 6P0       0.117000
     34 H12         -6.0920    -4.0150     0.5650 h1         1 6P0       0.039367
     35 H13         -4.4800    -3.7300     1.2520 h1         1 6P0       0.039367
     36 H14         -5.8340    -2.6440     1.6650 h1         1 6P0       0.039367
     37 H15         -2.9990     3.5500    -0.5500 hc         1 6P0       0.077200
     38 H16         -1.2890     4.0820    -0.9240 hc         1 6P0       0.077200
     39 H17          4.9760    -3.2940     1.9810 h1         1 6P0       0.058367
     40 H18          5.6740    -1.8440     2.7670 h1         1 6P0       0.058367
     41 H19          4.0160    -2.3760     3.1790 h1         1 6P0       0.058367
     42 H20          2.4270     1.3740    -2.3240 hn         1 6P0       0.370000
     43 H3           2.2440    -0.9190     2.0700 h4         1 6P0       0.160000
@<TRIPOS>BOND
     1     1     2 1   
     2     1    16 1   
     3     1    24 1   
     4     1    25 1   
     5     2     9 1   
     6     2    16 1   
     7     2    22 1   
     8     3     4 2   
     9     3    18 1   
    10     3    43 1   
    11     4     5 1   
    12     4     7 1   
    13     5     6 1   
    14     5    17 2   
    15     6    26 1   
    16     6    27 1   
    17     6    28 1   
    18     7     8 2   
    19     7    20 1   
    20     8    22 1   
    21     8    29 1   
    22     9    10 ar  
    23     9    14 ar  
    24    10    11 ar  
    25    10    30 1   
    26    11    12 ar  
    27    11    31 1   
    28    12    13 ar  
    29    12    23 1   
    30    13    14 ar  
    31    13    32 1   
    32    14    33 1   
    33    15    23 1   
    34    15    34 1   
    35    15    35 1   
    36    15    36 1   
    37    16    37 1   
    38    16    38 1   
    39    17    18 1   
    40    18    19 1   
    41    19    39 1   
    42    19    40 1   
    43    19    41 1   
    44    20    21 1   
    45    20    42 1   
    46    21    22 2   
@<TRIPOS>SUBSTRUCTURE
     1 6P0         1 TEMP              0 ****  ****    0 ROOT
