@<TRIPOS>MOLECULE
6P1
   41    43     1     0     0
SMALL
No Charge or Current Charge


@<TRIPOS>ATOM
      1 C01          4.3190     1.7880    -0.5310 cc         1 6P1       0.445700
      2 C04          3.7960     0.5030     1.2060 cd         1 6P1       0.310300
      3 C06          5.1150     2.7300    -1.3840 c3         1 6P1      -0.132400
      4 C07          1.5560    -0.5520     0.7290 cc         1 6P1      -0.071000
      5 N09          1.3380    -1.3190     1.8700 na         1 6P1       0.008800
      6 C11         -0.3800    -1.6560     0.6650 cd         1 6P1       0.259300
      7 C13         -1.7190    -2.1910     0.2040 c3         1 6P1      -0.034700
      8 C15         -1.5380    -3.2780    -0.8820 c3         1 6P1      -0.081100
      9 C16         -2.6820    -0.5450    -1.5270 ca         1 6P1      -0.063500
     10 C17         -3.5650     0.4920    -1.8750 ca         1 6P1      -0.173000
     11 C18         -4.4520     1.0230    -0.9260 ca         1 6P1       0.139100
     12 C19         -4.4480     0.5090     0.3880 ca         1 6P1      -0.173000
     13 C20         -3.5640    -0.5280     0.7360 ca         1 6P1      -0.063500
     14 C22         -6.2380     2.6520    -0.4290 c3         1 6P1       0.148900
     15 S02          2.7810     1.1840    -1.0830 ss         1 6P1      -0.016400
     16 C03          2.6810     0.2910     0.4090 cc         1 6P1      -0.180000
     17 N05          4.7340     1.3660     0.6550 nd         1 6P1      -0.648000
     18 C08          4.0910    -0.0820     2.5620 c3         1 6P1      -0.128400
     19 N10          0.1330    -2.0100     1.8340 nc         1 6P1      -0.512800
     20 C12          0.4570    -0.7680    -0.0450 cd         1 6P1      -0.206000
     21 C14         -2.6790    -1.0700    -0.2170 ca         1 6P1      -0.110300
     22 O21         -5.2940     2.0400    -1.3270 os         1 6P1      -0.343100
     23 H1           4.4800     3.5410    -1.7590 hc         1 6P1       0.060367
     24 H2           5.9380     3.1790    -0.8170 hc         1 6P1       0.060367
     25 H3           5.5400     2.2030    -2.2450 hc         1 6P1       0.060367
     26 H4           1.9610    -1.3980     2.6690 hn         1 6P1       0.374000
     27 H5          -2.1800    -2.7100     1.0540 hc         1 6P1       0.066700
     28 H6          -2.5120    -3.6410    -1.2330 hc         1 6P1       0.037367
     29 H7          -0.9760    -2.8970    -1.7430 hc         1 6P1       0.037367
     30 H8          -0.9840    -4.1330    -0.4760 hc         1 6P1       0.037367
     31 H9          -2.0010    -0.9280    -2.2820 ha         1 6P1       0.112500
     32 H10         -3.5610     0.8880    -2.8870 ha         1 6P1       0.120500
     33 H11         -5.1170     0.8990     1.1490 ha         1 6P1       0.120500
     34 H12         -3.5690    -0.9100     1.7550 ha         1 6P1       0.112500
     35 H13         -6.9520     1.9100    -0.0490 h1         1 6P1       0.039367
     36 H14         -5.7230     3.1160     0.4220 h1         1 6P1       0.039367
     37 H15         -6.8050     3.4340    -0.9500 h1         1 6P1       0.039367
     38 H16          4.1410    -1.1760     2.5150 hc         1 6P1       0.053700
     39 H17          5.0560     0.2700     2.9480 hc         1 6P1       0.053700
     40 H18          3.3260     0.2070     3.2900 hc         1 6P1       0.053700
     41 H19          0.2540    -0.3420    -1.0210 ha         1 6P1       0.147000
@<TRIPOS>BOND
     1     1     3 1   
     2     1    15 1   
     3     1    17 2   
     4     2    16 2   
     5     2    17 1   
     6     2    18 1   
     7     3    23 1   
     8     3    24 1   
     9     3    25 1   
    10     4     5 1   
    11     4    16 1   
    12     4    20 2   
    13     5    19 1   
    14     5    26 1   
    15     6     7 1   
    16     6    19 2   
    17     6    20 1   
    18     7     8 1   
    19     7    21 1   
    20     7    27 1   
    21     8    28 1   
    22     8    29 1   
    23     8    30 1   
    24     9    10 ar  
    25     9    21 ar  
    26     9    31 1   
    27    10    11 ar  
    28    10    32 1   
    29    11    12 ar  
    30    11    22 1   
    31    12    13 ar  
    32    12    33 1   
    33    13    21 ar  
    34    13    34 1   
    35    14    22 1   
    36    14    35 1   
    37    14    36 1   
    38    14    37 1   
    39    15    16 1   
    40    18    38 1   
    41    18    39 1   
    42    18    40 1   
    43    20    41 1   
@<TRIPOS>SUBSTRUCTURE
     1 6P1         1 TEMP              0 ****  ****    0 ROOT
