@<TRIPOS>MOLECULE
6P1
   41    43     1     0     0
SMALL
abcg2


@<TRIPOS>ATOM
      1 C01          5.1130     0.8690    -0.4480 cc         1 6P1       0.445700
      2 C04          3.5560     0.9610     1.1260 cd         1 6P1       0.310300
      3 C06          6.3700     1.1660    -1.1850 c3         1 6P1      -0.132400
      4 C07          1.6500    -0.5840     0.4120 cc         1 6P1      -0.071000
      5 N09          1.1570    -1.0450     1.5800 na         1 6P1       0.008800
      6 C11         -0.3320    -1.5340     0.1670 cd         1 6P1       0.259300
      7 C13         -1.6460    -2.0440    -0.3490 c3         1 6P1      -0.034700
      8 C15         -1.5030    -2.6710    -1.7350 c3         1 6P1      -0.081100
      9 C16         -2.6030     0.1600    -1.1730 ca         1 6P1      -0.063500
     10 C17         -3.5590     1.1570    -1.1570 ca         1 6P1      -0.173000
     11 C18         -4.6460     1.0770    -0.2820 ca         1 6P1       0.139100
     12 C19         -4.7480    -0.0150     0.5720 ca         1 6P1      -0.173000
     13 C20         -3.7730    -1.0100     0.5360 ca         1 6P1      -0.063500
     14 C22         -6.6340     2.0710     0.5470 c3         1 6P1       0.148900
     15 S02          3.9340    -0.2190    -1.0870 ss         1 6P1      -0.016400
     16 C03          2.9340     0.0750     0.2900 cc         1 6P1      -0.180000
     17 N05          4.7810     1.3880     0.6900 nd         1 6P1      -0.648000
     18 C08          3.0230     1.4930     2.4140 c3         1 6P1      -0.128400
     19 N10         -0.0320    -1.6210     1.4520 nc         1 6P1      -0.512800
     20 C12          0.6990    -0.8900    -0.5410 cd         1 6P1      -0.206000
     21 C14         -2.6920    -0.9480    -0.3290 ca         1 6P1      -0.110300
     22 O21         -5.5320     2.0920    -0.3360 os         1 6P1      -0.343100
     23 H1           6.1640     1.7320    -2.0950 hc         1 6P1       0.060367
     24 H2           7.0320     1.7560    -0.5560 hc         1 6P1       0.060367
     25 H3           6.8870     0.2530    -1.4780 hc         1 6P1       0.060367
     26 H4           1.6180    -1.0500     2.4760 hn         1 6P1       0.374000
     27 H5          -1.9770    -2.8240     0.3430 hc         1 6P1       0.066700
     28 H6          -2.4600    -3.0670    -2.0750 hc         1 6P1       0.037367
     29 H7          -1.1650    -1.9450    -2.4760 hc         1 6P1       0.037367
     30 H8          -0.7840    -3.4900    -1.7210 hc         1 6P1       0.037367
     31 H9          -1.7720     0.2560    -1.8620 ha         1 6P1       0.112500
     32 H10         -3.4730     2.0070    -1.8220 ha         1 6P1       0.120500
     33 H11         -5.5680    -0.1170     1.2700 ha         1 6P1       0.120500
     34 H12         -3.8720    -1.8540     1.2100 ha         1 6P1       0.112500
     35 H13         -7.2710     1.1970     0.3880 h1         1 6P1       0.039367
     36 H14         -6.3190     2.0910     1.5940 h1         1 6P1       0.039367
     37 H15         -7.2140     2.9680     0.3400 h1         1 6P1       0.039367
     38 H16          3.4570     0.9710     3.2680 hc         1 6P1       0.053700
     39 H17          3.2720     2.5480     2.5170 hc         1 6P1       0.053700
     40 H18          1.9410     1.3970     2.4800 hc         1 6P1       0.053700
     41 H19          0.7460    -0.6640    -1.5940 ha         1 6P1       0.147000
@<TRIPOS>BOND
     1     1     3 1   
     2     1    15 1   
     3     1    17 2   
     4     2    16 2   
     5     2    17 1   
     6     2    18 1   
     7     3    23 1   
     8     3    24 1   
     9     3    25 1   
    10     4     5 1   
    11     4    16 1   
    12     4    20 2   
    13     5    19 1   
    14     5    26 1   
    15     6     7 1   
    16     6    19 2   
    17     6    20 1   
    18     7     8 1   
    19     7    21 1   
    20     7    27 1   
    21     8    28 1   
    22     8    29 1   
    23     8    30 1   
    24     9    10 ar  
    25     9    21 ar  
    26     9    31 1   
    27    10    11 ar  
    28    10    32 1   
    29    11    12 ar  
    30    11    22 1   
    31    12    13 ar  
    32    12    33 1   
    33    13    21 ar  
    34    13    34 1   
    35    14    22 1   
    36    14    35 1   
    37    14    36 1   
    38    14    37 1   
    39    15    16 1   
    40    18    38 1   
    41    18    39 1   
    42    18    40 1   
    43    20    41 1   
@<TRIPOS>SUBSTRUCTURE
     1 6P1         1 TEMP              0 ****  ****    0 ROOT
