@<TRIPOS>MOLECULE
6P2
   42    45     1     0     0
SMALL
No Charge or Current Charge


@<TRIPOS>ATOM
      1 C01         -1.7720     3.0110     1.2980 cx         1 6P2      -0.107400
      2 C02         -1.7040     2.0450     0.1310 cx         1 6P2      -0.105000
      3 C05          2.7620    -0.2040    -0.1590 cc         1 6P2      -0.179000
      4 C06          3.8960    -0.3330    -0.9480 cd         1 6P2       0.307300
      5 C10          4.1850     0.3280    -2.2690 c3         1 6P2      -0.128400
      6 C11          1.6080     0.6080    -0.4560 cc         1 6P2      -0.074000
      7 C15          0.4900     0.7410     0.3120 cd         1 6P2      -0.198000
      8 C16         -2.6650     0.8910     0.0450 ca         1 6P2      -0.087300
      9 C17         -3.3640     0.6440    -1.1510 ca         1 6P2      -0.061500
     10 C18         -4.2560    -0.4380    -1.2400 ca         1 6P2      -0.175500
     11 C19         -4.4580    -1.2860    -0.1400 ca         1 6P2       0.140100
     12 C20         -3.7550    -1.0450     1.0610 ca         1 6P2      -0.175500
     13 C21         -2.8630     0.0390     1.1490 ca         1 6P2      -0.061500
     14 C23         -5.6210    -3.2590     0.7800 c3         1 6P2       0.148900
     15 C03         -2.1940     3.4660    -0.0760 cx         1 6P2      -0.107400
     16 S04          2.8770    -1.1650     1.2890 ss         1 6P2      -0.010400
     17 N07          4.8600    -1.1830    -0.4240 nd         1 6P2      -0.647000
     18 C08          4.4470    -1.6770     0.7350 cc         1 6P2       0.442700
     19 C09          5.2670    -2.6290     1.5530 c3         1 6P2      -0.131400
     20 N12          1.3750     1.4200    -1.5650 na         1 6P2       0.007800
     21 N13          0.1430     2.0620    -1.5180 nc         1 6P2      -0.522800
     22 C14         -0.3640     1.6270    -0.3750 cd         1 6P2       0.292300
     23 O22         -5.3450    -2.3330    -0.2860 os         1 6P2      -0.342100
     24 H1          -2.5530     2.8650     2.0410 hc         1 6P2       0.077950
     25 H2          -0.8360     3.3980     1.6930 hc         1 6P2       0.077950
     26 H3           4.1890     1.4200    -2.1710 hc         1 6P2       0.053033
     27 H4           5.1670     0.0340    -2.6570 hc         1 6P2       0.053033
     28 H5           3.4410     0.0440    -3.0230 hc         1 6P2       0.053033
     29 H6           0.2860     0.2630     1.2630 ha         1 6P2       0.154000
     30 H7          -3.2130     1.2920    -2.0120 ha         1 6P2       0.116500
     31 H8          -4.7930    -0.6210    -2.1670 ha         1 6P2       0.121500
     32 H9          -3.8860    -1.6830     1.9300 ha         1 6P2       0.121500
     33 H10         -2.3230     0.2150     2.0770 ha         1 6P2       0.116500
     34 H11         -6.3520    -4.0080     0.4520 h1         1 6P2       0.040033
     35 H12         -4.7080    -3.7850     1.0860 h1         1 6P2       0.040033
     36 H13         -6.0370    -2.7370     1.6520 h1         1 6P2       0.040033
     37 H14         -3.2570     3.6160    -0.2530 hc         1 6P2       0.077950
     38 H15         -1.5450     4.1640    -0.5970 hc         1 6P2       0.077950
     39 H16          5.5220    -2.1840     2.5210 hc         1 6P2       0.060367
     40 H17          4.7110    -3.5550     1.7390 hc         1 6P2       0.060367
     41 H18          6.2010    -2.8910     1.0420 hc         1 6P2       0.060367
     42 H19          2.0080     1.5620    -2.3480 hn         1 6P2       0.374000
@<TRIPOS>BOND
     1     1     2 1   
     2     1    15 1   
     3     1    24 1   
     4     1    25 1   
     5     2     8 1   
     6     2    15 1   
     7     2    22 1   
     8     3     4 2   
     9     3     6 1   
    10     3    16 1   
    11     4     5 1   
    12     4    17 1   
    13     5    26 1   
    14     5    27 1   
    15     5    28 1   
    16     6     7 2   
    17     6    20 1   
    18     7    22 1   
    19     7    29 1   
    20     8     9 ar  
    21     8    13 ar  
    22     9    10 ar  
    23     9    30 1   
    24    10    11 ar  
    25    10    31 1   
    26    11    12 ar  
    27    11    23 1   
    28    12    13 ar  
    29    12    32 1   
    30    13    33 1   
    31    14    23 1   
    32    14    34 1   
    33    14    35 1   
    34    14    36 1   
    35    15    37 1   
    36    15    38 1   
    37    16    18 1   
    38    17    18 2   
    39    18    19 1   
    40    19    39 1   
    41    19    40 1   
    42    19    41 1   
    43    20    21 1   
    44    20    42 1   
    45    21    22 2   
@<TRIPOS>SUBSTRUCTURE
     1 6P2         1 TEMP              0 ****  ****    0 ROOT
