@<TRIPOS>MOLECULE
6P2
   42    45     1     0     0
SMALL
bcc


@<TRIPOS>ATOM
      1 C01         -2.1310     3.2860     0.7590 cx         1 6P2      -0.107400
      2 C02         -1.7740     2.0610    -0.0440 cx         1 6P2      -0.105000
      3 C05          2.7510    -0.2020    -0.1720 cc         1 6P2      -0.099400
      4 C06          3.8950    -0.2340    -0.9210 cd         1 6P2       0.372600
      5 C10          4.2550     0.7000    -2.0280 c3         1 6P2      -0.128400
      6 C11          1.6240     0.7050    -0.2220 cc         1 6P2      -0.023300
      7 C15          0.2780     0.4810    -0.0010 cd         1 6P2      -0.281300
      8 C16         -2.6670     0.8650     0.0250 ca         1 6P2      -0.087300
      9 C17         -3.0760     0.2220    -1.1430 ca         1 6P2      -0.079500
     10 C18         -3.8570    -0.9170    -1.1020 ca         1 6P2      -0.193500
     11 C19         -4.2520    -1.4520     0.1270 ca         1 6P2       0.140100
     12 C20         -3.8500    -0.8250     1.3020 ca         1 6P2      -0.193500
     13 C21         -3.0620     0.3200     1.2380 ca         1 6P2      -0.079500
     14 C23         -5.4440    -3.1390     1.2930 c3         1 6P2       0.125700
     15 C03         -2.2870     3.3010    -0.7240 cx         1 6P2      -0.107400
     16 S04          2.7730    -1.4970     0.9690 ss         1 6P2      -0.155300
     17 N07          4.7560    -1.2470    -0.6000 nd         1 6P2      -0.647000
     18 C08          4.3110    -1.9920     0.3600 cc         1 6P2       0.442700
     19 C09          5.0270    -3.1650     0.9290 c3         1 6P2      -0.131400
     20 N12          1.7320     2.0180    -0.5090 na         1 6P2       0.007400
     21 N13          0.5660     2.6530    -0.4950 nc         1 6P2      -0.522800
     22 C14         -0.3340     1.7340    -0.1850 cd         1 6P2       0.357600
     23 O22         -5.0140    -2.5620     0.0770 os         1 6P2      -0.318900
     24 H1          -3.0250     3.2470     1.3700 hc         1 6P2       0.077950
     25 H2          -1.3130     3.8450     1.1950 hc         1 6P2       0.077950
     26 H3           4.8610     1.5330    -1.6660 hc         1 6P2       0.053033
     27 H4           4.8400     0.1780    -2.7830 hc         1 6P2       0.053033
     28 H5           3.3730     1.1160    -2.5140 hc         1 6P2       0.053033
     29 H6          -0.1930    -0.4570     0.2420 ha         1 6P2       0.172000
     30 H7          -2.7810     0.6240    -2.1060 ha         1 6P2       0.134500
     31 H8          -4.1680    -1.4010    -2.0190 ha         1 6P2       0.139500
     32 H9          -4.1340    -1.2070     2.2740 ha         1 6P2       0.139500
     33 H10         -2.7570     0.7920     2.1640 ha         1 6P2       0.134500
     34 H11         -6.0370    -4.0120     1.0300 h1         1 6P2       0.040033
     35 H12         -4.6030    -3.4590     1.9130 h1         1 6P2       0.040033
     36 H13         -6.0680    -2.4530     1.8730 h1         1 6P2       0.040033
     37 H14         -3.2900     3.2630    -1.1310 hc         1 6P2       0.077950
     38 H15         -1.5840     3.8780    -1.3110 hc         1 6P2       0.077950
     39 H16          5.3560    -2.9660     1.9500 hc         1 6P2       0.060367
     40 H17          4.3880    -4.0470     0.9560 hc         1 6P2       0.060367
     41 H18          5.9030    -3.3890     0.3240 hc         1 6P2       0.060367
     42 H19          2.5780     2.5390    -0.6790 hn         1 6P2       0.323700
@<TRIPOS>BOND
     1     1     2 1   
     2     1    15 1   
     3     1    24 1   
     4     1    25 1   
     5     2     8 1   
     6     2    15 1   
     7     2    22 1   
     8     3     4 2   
     9     3     6 1   
    10     3    16 1   
    11     4     5 1   
    12     4    17 1   
    13     5    26 1   
    14     5    27 1   
    15     5    28 1   
    16     6     7 2   
    17     6    20 1   
    18     7    22 1   
    19     7    29 1   
    20     8     9 ar  
    21     8    13 ar  
    22     9    10 ar  
    23     9    30 1   
    24    10    11 ar  
    25    10    31 1   
    26    11    12 ar  
    27    11    23 1   
    28    12    13 ar  
    29    12    32 1   
    30    13    33 1   
    31    14    23 1   
    32    14    34 1   
    33    14    35 1   
    34    14    36 1   
    35    15    37 1   
    36    15    38 1   
    37    16    18 1   
    38    17    18 2   
    39    18    19 1   
    40    19    39 1   
    41    19    40 1   
    42    19    41 1   
    43    20    21 1   
    44    20    42 1   
    45    21    22 2   
@<TRIPOS>SUBSTRUCTURE
     1 6P2         1 TEMP              0 ****  ****    0 ROOT
