@<TRIPOS>MOLECULE
6P3
   23    24     1     0     0
SMALL
No Charge or Current Charge


@<TRIPOS>ATOM
      1 C1           1.9500    -0.0180     0.0160 cp         1 6P3      -0.104500
      2 C2           2.6450     1.2050    -0.2000 ca         1 6P3      -0.095500
      3 C3           4.0500     1.2610    -0.1900 ca         1 6P3      -0.124500
      4 C4           4.7990     0.0980     0.0400 ca         1 6P3      -0.128000
      5 C5           4.1420    -1.1210     0.2620 ca         1 6P3      -0.124500
      6 C6           2.7370    -1.1790     0.2510 ca         1 6P3      -0.095500
      7 C12          0.4420    -0.0780     0.0020 cp         1 6P3       0.348500
      8 N13         -0.2220     1.0780     0.2410 nb         1 6P3      -0.705000
      9 C14         -1.5770     1.0790     0.2430 ca         1 6P3       0.346900
     10 C15         -2.3490    -0.0690     0.0010 ca         1 6P3      -0.166600
     11 C16         -1.6730    -1.2790    -0.2610 ca         1 6P3      -0.066000
     12 C17         -0.2690    -1.2760    -0.2610 ca         1 6P3      -0.173000
     13 C21         -3.8510     0.0170     0.0200 c          1 6P3       0.717600
     14 O22         -4.4950    -0.9990    -0.1980 o          1 6P3      -0.714500
     15 O23         -4.3720     1.0980     0.2520 o          1 6P3      -0.714500
     16 H1           2.0900     2.1220    -0.3870 ha         1 6P3       0.122500
     17 H2           4.5560     2.2080    -0.3620 ha         1 6P3       0.099000
     18 H3           5.8860     0.1420     0.0480 ha         1 6P3       0.096000
     19 H4           4.7200    -2.0230     0.4470 ha         1 6P3       0.099000
     20 H5           2.2610    -2.1360     0.4450 ha         1 6P3       0.122500
     21 H6          -2.0440     2.0430     0.4470 h4         1 6P3       0.033100
     22 H7          -2.2190    -2.1990    -0.4640 ha         1 6P3       0.132000
     23 H8           0.2600    -2.1980    -0.4780 ha         1 6P3       0.097000
@<TRIPOS>BOND
     1     1     2 ar  
     2     1     6 ar  
     3     1     7 1   
     4     2     3 ar  
     5     2    16 1   
     6     3     4 ar  
     7     3    17 1   
     8     4     5 ar  
     9     4    18 1   
    10     5     6 ar  
    11     5    19 1   
    12     6    20 1   
    13     7     8 ar  
    14     7    12 ar  
    15     8     9 ar  
    16     9    10 ar  
    17     9    21 1   
    18    10    11 ar  
    19    10    13 1   
    20    11    12 ar  
    21    11    22 1   
    22    12    23 1   
    23    13    14 1   
    24    13    15 1   
@<TRIPOS>SUBSTRUCTURE
     1 6P3         1 TEMP              0 ****  ****    0 ROOT
