@<TRIPOS>MOLECULE
6P3
   23    24     1     0     0
SMALL
bcc


@<TRIPOS>ATOM
      1 C1           1.9380    -0.0300     0.0240 cp         1 6P3      -0.104500
      2 C2           2.5990     1.1800    -0.1990 ca         1 6P3      -0.113500
      3 C3           3.9830     1.2410    -0.1990 ca         1 6P3      -0.142500
      4 C4           4.7360     0.0970     0.0330 ca         1 6P3      -0.146000
      5 C5           4.0900    -1.1100     0.2670 ca         1 6P3      -0.142500
      6 C6           2.7040    -1.1730     0.2610 ca         1 6P3      -0.113500
      7 C12          0.4600    -0.0810     0.0110 cp         1 6P3       0.413800
      8 N13         -0.1830     1.0600     0.2610 nb         1 6P3      -0.705000
      9 C14         -1.5080     1.0640     0.2540 ca         1 6P3       0.412200
     10 C15         -2.2950    -0.0560     0.0030 ca         1 6P3      -0.231900
     11 C16         -1.6180    -1.2400    -0.2650 ca         1 6P3      -0.084000
     12 C17         -0.2350    -1.2580    -0.2670 ca         1 6P3      -0.256300
     13 C21         -3.8130     0.0170     0.0160 c          1 6P3       0.928200
     14 O22         -4.4180    -1.0520    -0.1870 o          1 6P3      -0.819800
     15 O23         -4.3120     1.1380     0.2280 o          1 6P3      -0.819800
     16 H1           2.0200     2.0750    -0.3820 ha         1 6P3       0.140500
     17 H2           4.4770     2.1860    -0.3860 ha         1 6P3       0.117000
     18 H3           5.8170     0.1450     0.0350 ha         1 6P3       0.114000
     19 H4           4.6650    -2.0060     0.4620 ha         1 6P3       0.117000
     20 H5           2.2220    -2.1210     0.4660 ha         1 6P3       0.140500
     21 H6          -1.9830     2.0160     0.4640 h4         1 6P3       0.033100
     22 H7          -2.1730    -2.1430    -0.4840 ha         1 6P3       0.150000
     23 H8           0.2940    -2.1720    -0.5020 ha         1 6P3       0.115000
@<TRIPOS>BOND
     1     1     2 ar  
     2     1     6 ar  
     3     1     7 1   
     4     2     3 ar  
     5     2    16 1   
     6     3     4 ar  
     7     3    17 1   
     8     4     5 ar  
     9     4    18 1   
    10     5     6 ar  
    11     5    19 1   
    12     6    20 1   
    13     7     8 ar  
    14     7    12 ar  
    15     8     9 ar  
    16     9    10 ar  
    17     9    21 1   
    18    10    11 ar  
    19    10    13 1   
    20    11    12 ar  
    21    11    22 1   
    22    12    23 1   
    23    13    14 1   
    24    13    15 1   
@<TRIPOS>SUBSTRUCTURE
     1 6P3         1 TEMP              0 ****  ****    0 ROOT
