@<TRIPOS>MOLECULE
6P4
   28    30     1     0     0
SMALL
abcg2


@<TRIPOS>ATOM
      1 C10          1.8950    -1.5640    -0.7400 cc         1 6P4      -0.229000
      2 C13         -3.4640    -0.0480     0.0390 cc         1 6P4      -0.100000
      3 C15          3.1880    -1.9570    -0.3610 cc         1 6P4       0.238900
      4 N1          -0.7450     0.1610    -0.0270 na         1 6P4       0.157100
      5 C2           0.5750     0.5550    -0.0630 cd         1 6P4      -0.140300
      6 C3          -1.5020     1.3130    -0.0440 cd         1 6P4      -0.068000
      7 C4          -1.3050    -1.0820     0.0440 cd         1 6P4      -0.109000
      8 C5           1.6850    -0.3690    -0.0740 cd         1 6P4      -0.072800
      9 C6           0.5400     1.9370    -0.0990 cc         1 6P4       0.099400
     10 N7          -0.7330     2.3890    -0.0870 nc         1 6P4      -0.293600
     11 C8          -2.9040     1.1930    -0.0180 cd         1 6P4      -0.076000
     12 C9          -2.6570    -1.2200     0.0800 cc         1 6P4      -0.107300
     13 N11          2.8170    -0.1440     0.6280 na         1 6P4       0.006800
     14 C12          1.7000     2.8690    -0.1500 c3         1 6P4      -0.028900
     15 C14         -3.2930    -2.5740     0.1680 c3         1 6P4      -0.039800
     16 N16          3.7360    -1.0850     0.4650 nd         1 6P4      -0.515800
     17 H1           1.2280    -2.0620    -1.4230 ha         1 6P4       0.144000
     18 H3           3.7330    -2.8360    -0.6690 h4         1 6P4       0.037100
     19 H4          -0.6250    -1.9200     0.0810 h4         1 6P4       0.154000
     20 H5          -3.5060     2.0900    -0.0410 ha         1 6P4       0.145000
     21 H6           2.9960     0.6230     1.2570 hn         1 6P4       0.374000
     22 H7           1.4170     3.7950    -0.6480 hc         1 6P4       0.051700
     23 H8           2.0510     3.1300     0.8510 hc         1 6P4       0.051700
     24 H9           2.5430     2.4390    -0.6910 hc         1 6P4       0.051700
     25 H10         -3.8790    -2.6690     1.0830 hc         1 6P4       0.047700
     26 H11         -3.9730    -2.7400    -0.6690 hc         1 6P4       0.047700
     27 H12         -2.5500    -3.3690     0.1600 hc         1 6P4       0.047700
     28 H2          -4.5420    -0.1520     0.0580 ha         1 6P4       0.125000
@<TRIPOS>BOND
     1     1     3 1   
     2     1     8 2   
     3     1    17 1   
     4     2    11 2   
     5     2    12 1   
     6     2    28 1   
     7     3    16 2   
     8     3    18 1   
     9     4     5 1   
    10     4     6 1   
    11     4     7 1   
    12     5     8 1   
    13     5     9 2   
    14     6    10 2   
    15     6    11 1   
    16     7    12 2   
    17     7    19 1   
    18     8    13 1   
    19     9    10 1   
    20     9    14 1   
    21    11    20 1   
    22    12    15 1   
    23    13    16 1   
    24    13    21 1   
    25    14    22 1   
    26    14    23 1   
    27    14    24 1   
    28    15    25 1   
    29    15    26 1   
    30    15    27 1   
@<TRIPOS>SUBSTRUCTURE
     1 6P4         1 TEMP              0 ****  ****    0 ROOT
