@<TRIPOS>MOLECULE
6P4
   28    30     1     0     0
SMALL
No Charge or Current Charge


@<TRIPOS>ATOM
      1 C10          1.8710    -1.6600    -0.4280 cc         1 6P4      -0.229000
      2 C13         -3.5000    -0.0460    -0.1690 cc         1 6P4      -0.100000
      3 C15          3.2310    -1.9860    -0.3390 cc         1 6P4       0.238900
      4 N1          -0.7500     0.1250    -0.2270 na         1 6P4       0.157100
      5 C2           0.5780     0.4800    -0.0730 cd         1 6P4      -0.140300
      6 C3          -1.5230     1.2580    -0.1680 cd         1 6P4      -0.068000
      7 C4          -1.2870    -1.1340     0.0770 cd         1 6P4      -0.109000
      8 C5           1.7740    -0.3420    -0.0940 cd         1 6P4      -0.072800
      9 C6           0.5330     1.8630     0.0200 cc         1 6P4       0.099400
     10 N7          -0.7610     2.3310    -0.0620 nc         1 6P4      -0.293600
     11 C8          -2.9440     1.2130    -0.2100 cd         1 6P4      -0.076000
     12 C9          -2.6780    -1.2230     0.0110 cc         1 6P4      -0.107300
     13 N11          3.0880     0.0700     0.1600 na         1 6P4       0.006800
     14 C12          1.6620     2.8530     0.1550 c3         1 6P4      -0.028900
     15 C14         -3.3960    -2.5360     0.1820 c3         1 6P4      -0.039800
     16 N16          4.0030    -0.9770     0.0170 nd         1 6P4      -0.515800
     17 H1           1.1020    -2.3470    -0.7570 ha         1 6P4       0.144000
     18 H3           3.6880    -2.9460    -0.5430 h4         1 6P4       0.037100
     19 H4          -0.6280    -1.9560     0.3060 h4         1 6P4       0.154000
     20 H5          -3.5530     2.1120    -0.2350 ha         1 6P4       0.145000
     21 H6           3.3890     1.0030     0.4340 hn         1 6P4       0.374000
     22 H7           1.2910     3.8850     0.1290 hc         1 6P4       0.051700
     23 H8           2.1900     2.7180     1.1060 hc         1 6P4       0.051700
     24 H9           2.3800     2.7430    -0.6660 hc         1 6P4       0.051700
     25 H10         -3.9980    -2.5350     1.0990 hc         1 6P4       0.047700
     26 H11         -4.0670    -2.7280    -0.6640 hc         1 6P4       0.047700
     27 H12         -2.6910    -3.3740     0.2450 hc         1 6P4       0.047700
     28 H2          -4.5790    -0.1600    -0.1950 ha         1 6P4       0.125000
@<TRIPOS>BOND
     1     1     3 1   
     2     1     8 2   
     3     1    17 1   
     4     2    11 2   
     5     2    12 1   
     6     2    28 1   
     7     3    16 2   
     8     3    18 1   
     9     4     5 1   
    10     4     6 1   
    11     4     7 1   
    12     5     8 1   
    13     5     9 2   
    14     6    10 2   
    15     6    11 1   
    16     7    12 2   
    17     7    19 1   
    18     8    13 1   
    19     9    10 1   
    20     9    14 1   
    21    11    20 1   
    22    12    15 1   
    23    13    16 1   
    24    13    21 1   
    25    14    22 1   
    26    14    23 1   
    27    14    24 1   
    28    15    25 1   
    29    15    26 1   
    30    15    27 1   
@<TRIPOS>SUBSTRUCTURE
     1 6P4         1 TEMP              0 ****  ****    0 ROOT
