@<TRIPOS>MOLECULE
6P5
   31    33     1     0     0
SMALL
bcc


@<TRIPOS>ATOM
      1 C10         -2.0940    -0.1110     0.0410 ca         1 6P5      -0.146500
      2 C11          5.0790     1.3370     0.2980 cc         1 6P5       0.303200
      3 C13         -2.9580    -1.2040     0.1290 ca         1 6P5      -0.093500
      4 C15         -4.0170     1.3440    -0.0680 ca         1 6P5      -0.135000
      5 C16          2.0640    -2.6910     0.1930 c3         1 6P5      -0.129400
      6 C17         -4.8860     0.2580     0.0140 ca         1 6P5      -0.057300
      7 C18         -6.3720     0.4510    -0.0330 c3         1 6P5      -0.050800
      8 C1           1.7760    -0.1560     0.0650 cc         1 6P5      -0.112400
      9 S2           0.4800     0.9790     0.0040 ss         1 6P5      -0.132300
     10 N3          -0.0880    -1.4980     0.1050 nd         1 6P5      -0.652000
     11 C4          -0.6500    -0.3280     0.0540 cc         1 6P5       0.501900
     12 C5           1.2710    -1.4290     0.1160 cd         1 6P5       0.380600
     13 C6           3.1470     0.3080     0.0640 cd         1 6P5      -0.020300
     14 N7           4.1540    -0.3420    -0.5590 na         1 6P5       0.007400
     15 N8           5.3260     0.2620    -0.4300 nd         1 6P5      -0.514800
     16 C9           3.7220     1.4250     0.6400 cc         1 6P5      -0.297300
     17 C12         -2.6450     1.1660    -0.0570 ca         1 6P5      -0.093500
     18 C14         -4.3290    -1.0170     0.1160 ca         1 6P5      -0.135000
     19 H1           5.8780     2.0140     0.5590 h4         1 6P5       0.038100
     20 H2          -2.5530    -2.2040     0.2110 ha         1 6P5       0.143000
     21 H3          -4.4180     2.3480    -0.1430 ha         1 6P5       0.133500
     22 H4           2.2210    -3.1220    -0.7990 hc         1 6P5       0.053700
     23 H5           3.0410    -2.5330     0.6470 hc         1 6P5       0.053700
     24 H6           1.5320    -3.4320     0.7870 hc         1 6P5       0.053700
     25 H7          -6.7290     0.4480    -1.0650 hc         1 6P5       0.045367
     26 H8          -6.8970    -0.3450     0.4930 hc         1 6P5       0.045367
     27 H9          -6.6660     1.4040     0.4070 hc         1 6P5       0.045367
     28 H10          4.0830    -1.1700    -1.1300 hn         1 6P5       0.322700
     29 H11          3.2330     2.1780     1.2350 ha         1 6P5       0.166000
     30 H12         -2.0080     2.0410    -0.1250 ha         1 6P5       0.143000
     31 H13         -4.9810    -1.8790     0.1890 ha         1 6P5       0.133500
@<TRIPOS>BOND
     1     1     3 ar  
     2     1    11 1   
     3     1    17 ar  
     4     2    15 2   
     5     2    16 1   
     6     2    19 1   
     7     3    18 ar  
     8     3    20 1   
     9     4     6 ar  
    10     4    17 ar  
    11     4    21 1   
    12     5    12 1   
    13     5    22 1   
    14     5    23 1   
    15     5    24 1   
    16     6     7 1   
    17     6    18 ar  
    18     7    25 1   
    19     7    26 1   
    20     7    27 1   
    21     8     9 1   
    22     8    12 2   
    23     8    13 1   
    24     9    11 1   
    25    10    11 2   
    26    10    12 1   
    27    13    14 1   
    28    13    16 2   
    29    14    15 1   
    30    14    28 1   
    31    16    29 1   
    32    17    30 1   
    33    18    31 1   
@<TRIPOS>SUBSTRUCTURE
     1 6P5         1 TEMP              0 ****  ****    0 ROOT
