@<TRIPOS>MOLECULE
6P5
   31    33     1     0     0
SMALL
No Charge or Current Charge


@<TRIPOS>ATOM
      1 C10         -2.0620    -0.1220     0.0570 ca         1 6P5      -0.146500
      2 C11          4.9740     1.4580     0.1520 cc         1 6P5       0.237900
      3 C13         -2.9550    -1.2190     0.0180 ca         1 6P5      -0.075500
      4 C15         -4.0010     1.3800     0.0920 ca         1 6P5      -0.117000
      5 C16          2.1000    -2.7750    -0.0110 c3         1 6P5      -0.129400
      6 C17         -4.8770     0.2820     0.0560 ca         1 6P5      -0.057300
      7 C18         -6.3830     0.4990     0.0510 c3         1 6P5      -0.050800
      8 C1           1.8090    -0.1950     0.0770 cc         1 6P5      -0.192000
      9 S2           0.5360     0.9880     0.1110 ss         1 6P5       0.012600
     10 N3          -0.0650    -1.5620     0.0180 nd         1 6P5      -0.652000
     11 C4          -0.6010    -0.3430     0.0580 cc         1 6P5       0.501900
     12 C5           1.3200    -1.4880     0.0290 cd         1 6P5       0.315300
     13 C6           3.1050     0.3040     0.1020 cd         1 6P5      -0.071000
     14 N7           4.2240    -0.5330     0.0790 na         1 6P5       0.007800
     15 N8           5.4110     0.2090     0.1110 nd         1 6P5      -0.514800
     16 C9           3.5750     1.5770     0.1490 cc         1 6P5      -0.214000
     17 C12         -2.6090     1.1840     0.0930 ca         1 6P5      -0.075500
     18 C14         -4.3460    -1.0170     0.0170 ca         1 6P5      -0.117000
     19 H1           5.6970     2.2630     0.1850 h4         1 6P5       0.038100
     20 H2          -2.5770    -2.2390    -0.0110 ha         1 6P5       0.125000
     21 H3          -4.3990     2.3920     0.1180 ha         1 6P5       0.115500
     22 H4           2.7380    -2.8220    -0.9010 hc         1 6P5       0.053700
     23 H5           2.7280    -2.8830     0.8800 hc         1 6P5       0.053700
     24 H6           1.4320    -3.6450    -0.0450 hc         1 6P5       0.053700
     25 H7          -6.7610     0.5900    -0.9740 hc         1 6P5       0.045367
     26 H8          -6.9090    -0.3360     0.5300 hc         1 6P5       0.045367
     27 H9          -6.6570     1.4130     0.5920 hc         1 6P5       0.045367
     28 H10          4.2310    -1.5490     0.0430 hn         1 6P5       0.373000
     29 H11          3.0190     2.5070     0.1780 ha         1 6P5       0.148000
     30 H12         -1.9690     2.0620     0.1210 ha         1 6P5       0.125000
     31 H13         -5.0110    -1.8780    -0.0140 ha         1 6P5       0.115500
@<TRIPOS>BOND
     1     1     3 ar  
     2     1    11 1   
     3     1    17 ar  
     4     2    15 2   
     5     2    16 1   
     6     2    19 1   
     7     3    18 ar  
     8     3    20 1   
     9     4     6 ar  
    10     4    17 ar  
    11     4    21 1   
    12     5    12 1   
    13     5    22 1   
    14     5    23 1   
    15     5    24 1   
    16     6     7 1   
    17     6    18 ar  
    18     7    25 1   
    19     7    26 1   
    20     7    27 1   
    21     8     9 1   
    22     8    12 2   
    23     8    13 1   
    24     9    11 1   
    25    10    11 2   
    26    10    12 1   
    27    13    14 1   
    28    13    16 2   
    29    14    15 1   
    30    14    28 1   
    31    16    29 1   
    32    17    30 1   
    33    18    31 1   
@<TRIPOS>SUBSTRUCTURE
     1 6P5         1 TEMP              0 ****  ****    0 ROOT
