@<TRIPOS>MOLECULE
6P6
   33    35     1     0     0
SMALL
bcc


@<TRIPOS>ATOM
      1 C1           5.1940    -0.5860    -0.4400 ca         1 6P6      -0.103500
      2 C2           3.8060    -0.6560    -0.4210 ca         1 6P6      -0.159500
      3 C3           3.0670     0.4640    -0.0390 ca         1 6P6       0.160600
      4 C7          -0.6580    -0.0950     0.0020 ca         1 6P6      -0.287600
      5 C8          -1.1630     1.2170    -0.0160 ca         1 6P6      -0.104000
      6 C9          -2.5140     1.4440    -0.0000 ca         1 6P6      -0.113000
      7 C10         -3.4210     0.3660     0.0420 ca         1 6P6      -0.152600
      8 C11         -2.9400    -0.9230     0.0580 ca         1 6P6      -0.117300
      9 C12         -1.5580    -1.1790     0.0280 ca         1 6P6       0.429600
     10 C13          0.1520    -2.6480    -0.0160 ca         1 6P6       0.694900
     11 C14         -4.9020     0.5870     0.0680 c          1 6P6       0.580700
     12 C15         -5.4080     1.9920    -0.0870 c3         1 6P6      -0.194100
     13 C16          5.8640     0.5770    -0.0900 ca         1 6P6      -0.148000
     14 O1          -5.6550    -0.3520     0.2070 o          1 6P6      -0.511100
     15 N1          -1.1350    -2.4730     0.0210 nb         1 6P6      -0.721000
     16 N2           1.1110    -1.7100    -0.0340 nb         1 6P6      -0.797000
     17 C6           0.7420    -0.4490    -0.0170 ca         1 6P6       0.733200
     18 N3           1.6690     0.5300    -0.0090 nu         1 6P6      -0.734300
     19 C4           3.7430     1.6380     0.3090 ca         1 6P6      -0.159500
     20 C5           5.1250     1.6920     0.2830 ca         1 6P6      -0.103500
     21 H1           5.7530    -1.4630    -0.7400 ha         1 6P6       0.133000
     22 H2           3.3130    -1.5710    -0.7020 ha         1 6P6       0.146000
     23 H3          -0.5080     2.0770    -0.0500 ha         1 6P6       0.126000
     24 H4          -2.8700     2.4640    -0.0180 ha         1 6P6       0.136000
     25 H5          -3.6140    -1.7690     0.0840 ha         1 6P6       0.174000
     26 H6           0.5090    -3.6730    -0.0300 h5         1 6P6       0.049100
     27 H7          -5.0450     2.4340    -1.0160 hc         1 6P6       0.063033
     28 H8          -6.4950     2.0070    -0.0860 hc         1 6P6       0.063033
     29 H9          -5.0460     2.6220     0.7270 hc         1 6P6       0.063033
     30 H10          6.9440     0.6150    -0.1090 ha         1 6P6       0.135000
     31 H11          1.3190     1.4670     0.1040 hn         1 6P6       0.441800
     32 H12          3.1780     2.5150     0.6050 ha         1 6P6       0.146000
     33 H13          5.6230     2.6120     0.5590 ha         1 6P6       0.133000
@<TRIPOS>BOND
     1     1     2 ar  
     2     1    13 ar  
     3     1    21 1   
     4     2     3 ar  
     5     2    22 1   
     6     3    18 1   
     7     3    19 ar  
     8     4     5 ar  
     9     4     9 ar  
    10     4    17 ar  
    11     5     6 ar  
    12     5    23 1   
    13     6     7 ar  
    14     6    24 1   
    15     7     8 ar  
    16     7    11 1   
    17     8     9 ar  
    18     8    25 1   
    19     9    15 ar  
    20    10    15 ar  
    21    10    16 ar  
    22    10    26 1   
    23    11    12 1   
    24    11    14 2   
    25    12    27 1   
    26    12    28 1   
    27    12    29 1   
    28    13    20 ar  
    29    13    30 1   
    30    16    17 ar  
    31    17    18 1   
    32    18    31 1   
    33    19    20 ar  
    34    19    32 1   
    35    20    33 1   
@<TRIPOS>SUBSTRUCTURE
     1 6P6         1 TEMP              0 ****  ****    0 ROOT
