@<TRIPOS>MOLECULE
6P6
   33    35     1     0     0
SMALL
No Charge or Current Charge


@<TRIPOS>ATOM
      1 C1           5.1530    -0.4450    -0.8730 ca         1 6P6      -0.085500
      2 C2           3.7560    -0.4850    -0.7160 ca         1 6P6      -0.141500
      3 C3           3.0900     0.5130     0.0230 ca         1 6P6       0.299000
      4 C7          -0.6650    -0.1580     0.1150 ca         1 6P6      -0.157000
      5 C8          -1.1440     1.1640    -0.0230 ca         1 6P6      -0.086000
      6 C9          -2.5230     1.4170    -0.0960 ca         1 6P6      -0.095000
      7 C10         -3.4560     0.3560    -0.0350 ca         1 6P6      -0.152600
      8 C11         -2.9660    -0.9630     0.0990 ca         1 6P6      -0.034000
      9 C12         -1.5870    -1.2310     0.1730 ca         1 6P6       0.036000
     10 C13          0.1830    -2.6940     0.3700 ca         1 6P6       0.168900
     11 C14         -4.9520     0.5960    -0.1110 c          1 6P6       0.580700
     12 C15         -5.4860     2.0230    -0.2570 c3         1 6P6      -0.194100
     13 C16          5.8940     0.6010    -0.2980 ca         1 6P6      -0.130000
     14 O1          -5.7420    -0.3400    -0.0580 o          1 6P6      -0.511100
     15 N1          -1.1480    -2.5020     0.3000 nb         1 6P6      -0.195000
     16 N2           1.1340    -1.7430     0.3280 nb         1 6P6      -0.271000
     17 C6           0.7150    -0.4730     0.1910 ca         1 6P6       0.404900
     18 N3           1.7000     0.5180     0.1880 nu         1 6P6      -0.927900
     19 C4           3.8390     1.5640     0.5810 ca         1 6P6      -0.141500
     20 C5           5.2370     1.6080     0.4270 ca         1 6P6      -0.085500
     21 H1           5.6590    -1.2200    -1.4450 ha         1 6P6       0.115000
     22 H2           3.1960    -1.2870    -1.1880 ha         1 6P6       0.128000
     23 H3          -0.4610     2.0080    -0.0830 ha         1 6P6       0.108000
     24 H4          -2.8510     2.4490    -0.2030 ha         1 6P6       0.118000
     25 H5          -3.6620    -1.7990     0.1460 ha         1 6P6       0.156000
     26 H6           0.5240    -3.7220     0.4760 h5         1 6P6       0.049100
     27 H7          -5.0350     2.4850    -1.1420 hc         1 6P6       0.063033
     28 H8          -6.5800     2.0600    -0.2990 hc         1 6P6       0.063033
     29 H9          -5.0950     2.6360     0.5630 hc         1 6P6       0.063033
     30 H10          6.9750     0.6330    -0.4190 ha         1 6P6       0.117000
     31 H11          1.3290     1.4330     0.4320 hn         1 6P6       0.497000
     32 H12          3.3400     2.3480     1.1440 ha         1 6P6       0.128000
     33 H13          5.8080     2.4220     0.8690 ha         1 6P6       0.115000
@<TRIPOS>BOND
     1     1     2 ar  
     2     1    13 ar  
     3     1    21 1   
     4     2     3 ar  
     5     2    22 1   
     6     3    18 1   
     7     3    19 ar  
     8     4     5 ar  
     9     4     9 ar  
    10     4    17 ar  
    11     5     6 ar  
    12     5    23 1   
    13     6     7 ar  
    14     6    24 1   
    15     7     8 ar  
    16     7    11 1   
    17     8     9 ar  
    18     8    25 1   
    19     9    15 ar  
    20    10    15 ar  
    21    10    16 ar  
    22    10    26 1   
    23    11    12 1   
    24    11    14 2   
    25    12    27 1   
    26    12    28 1   
    27    12    29 1   
    28    13    20 ar  
    29    13    30 1   
    30    16    17 ar  
    31    17    18 1   
    32    18    31 1   
    33    19    20 ar  
    34    19    32 1   
    35    20    33 1   
@<TRIPOS>SUBSTRUCTURE
     1 6P6         1 TEMP              0 ****  ****    0 ROOT
