@<TRIPOS>MOLECULE
6P8
   35    37     1     0     0
SMALL
bcc


@<TRIPOS>ATOM
      1 C1          -5.5990     0.4040    -0.2170 ca         1 6P8      -0.102500
      2 C2          -4.2210     0.5870    -0.2210 ca         1 6P8      -0.164000
      3 C3          -3.3800    -0.5080    -0.0100 ca         1 6P8       0.164600
      4 C7           0.2940     0.3080    -0.0220 ca         1 6P8      -0.330600
      5 C8           0.8920    -0.9580     0.0990 ca         1 6P8      -0.069000
      6 C9           2.2520    -1.1110     0.1530 ca         1 6P8      -0.157000
      7 C10          3.0920     0.0240     0.0880 ca         1 6P8       0.110600
      8 C11          2.5220     1.2770    -0.0350 ca         1 6P8      -0.260300
      9 C12          1.1320     1.4410    -0.0930 ca         1 6P8       0.473600
     10 C13         -0.6670     2.7910    -0.2710 ca         1 6P8       0.699900
     11 C14          5.3050    -1.1210     0.1950 c          1 6P8       0.679100
     12 C15          6.7710    -0.7760     0.2330 c3         1 6P8      -0.182100
     13 C16         -6.1630    -0.8460    -0.0080 ca         1 6P8      -0.152000
     14 O1           4.9130    -2.2730     0.1910 o          1 6P8      -0.576100
     15 N3           4.4800    -0.0370     0.1500 ns         1 6P8      -0.475100
     16 N1           0.6280     2.7000    -0.2200 nb         1 6P8      -0.738000
     17 N2          -1.5690     1.8000    -0.2080 nb         1 6P8      -0.808000
     18 C6          -1.1190     0.5700    -0.0790 ca         1 6P8       0.744200
     19 N4          -1.9830    -0.4640     0.0050 nu         1 6P8      -0.733300
     20 C4          -3.9510    -1.7680     0.1990 ca         1 6P8      -0.164000
     21 C5          -5.3240    -1.9340     0.2000 ca         1 6P8      -0.102500
     22 H1          -6.2370     1.2620    -0.3820 ha         1 6P8       0.131500
     23 H2          -3.8100     1.5680    -0.3850 ha         1 6P8       0.148000
     24 H3           0.2950    -1.8600     0.1520 ha         1 6P8       0.126000
     25 H4           2.6670    -2.1000     0.2490 ha         1 6P8       0.170000
     26 H5           3.1430     2.1640    -0.0880 ha         1 6P8       0.150000
     27 H6          -1.0860     3.7870    -0.3760 h5         1 6P8       0.045100
     28 H7           6.9700     0.2780     0.4120 hc         1 6P8       0.066367
     29 H8           7.2580    -1.3600     1.0130 hc         1 6P8       0.066367
     30 H9           7.2280    -1.0550    -0.7170 hc         1 6P8       0.066367
     31 H10         -7.2370    -0.9710    -0.0070 ha         1 6P8       0.134000
     32 H11          4.9380     0.8610     0.1410 hn         1 6P8       0.320500
     33 H12         -1.5650    -1.3710     0.1330 hn         1 6P8       0.440800
     34 H13         -3.3110    -2.6270     0.3650 ha         1 6P8       0.148000
     35 H14         -5.7380    -2.9200     0.3660 ha         1 6P8       0.131500
@<TRIPOS>BOND
     1     1     2 ar  
     2     1    13 ar  
     3     1    22 1   
     4     2     3 ar  
     5     2    23 1   
     6     3    19 1   
     7     3    20 ar  
     8     4     5 ar  
     9     4     9 ar  
    10     4    18 ar  
    11     5     6 ar  
    12     5    24 1   
    13     6     7 ar  
    14     6    25 1   
    15     7     8 ar  
    16     7    15 1   
    17     8     9 ar  
    18     8    26 1   
    19     9    16 ar  
    20    10    16 ar  
    21    10    17 ar  
    22    10    27 1   
    23    11    12 1   
    24    11    14 2   
    25    11    15 1   
    26    12    28 1   
    27    12    29 1   
    28    12    30 1   
    29    13    21 ar  
    30    13    31 1   
    31    15    32 1   
    32    17    18 ar  
    33    18    19 1   
    34    19    33 1   
    35    20    21 ar  
    36    20    34 1   
    37    21    35 1   
@<TRIPOS>SUBSTRUCTURE
     1 6P8         1 TEMP              0 ****  ****    0 ROOT
