@<TRIPOS>MOLECULE
6P8
   35    37     1     0     0
SMALL
No Charge or Current Charge


@<TRIPOS>ATOM
      1 C1          -5.5050     0.1840    -0.9530 ca         1 6P8      -0.084500
      2 C2          -4.1170     0.3260    -0.7770 ca         1 6P8      -0.146000
      3 C3          -3.4090    -0.5590     0.0590 ca         1 6P8       0.303000
      4 C7           0.2920     0.3490     0.1470 ca         1 6P8      -0.200000
      5 C8           0.8530    -0.9470     0.1250 ca         1 6P8      -0.051000
      6 C9           2.2470    -1.1160     0.0910 ca         1 6P8      -0.139000
      7 C10          3.1030     0.0050     0.0770 ca         1 6P8       0.018000
      8 C11          2.5360     1.2910     0.0930 ca         1 6P8      -0.177000
      9 C12          1.1430     1.4790     0.1270 ca         1 6P8       0.080000
     10 C13         -0.7130     2.8400     0.1770 ca         1 6P8       0.173900
     11 C14          5.3910    -1.1690     0.0390 c          1 6P8       0.612100
     12 C15          6.8660    -0.7810    -0.0110 c3         1 6P8      -0.182100
     13 C16         -6.1930    -0.8510    -0.3000 ca         1 6P8      -0.134000
     14 O1           5.0430    -2.3430     0.0740 o          1 6P8      -0.576100
     15 N3           4.5220    -0.0860     0.0420 ns         1 6P8      -0.149000
     16 N1           0.6280     2.7260     0.1410 nb         1 6P8      -0.212000
     17 N2          -1.6030     1.8310     0.2020 nb         1 6P8      -0.282000
     18 C6          -1.1040     0.5840     0.1790 ca         1 6P8       0.415900
     19 N4          -2.0260    -0.4630     0.2470 nu         1 6P8      -0.926900
     20 C4          -4.1040    -1.6030     0.6950 ca         1 6P8      -0.146000
     21 C5          -5.4920    -1.7480     0.5230 ca         1 6P8      -0.084500
     22 H1          -6.0450     0.8730    -1.6000 ha         1 6P8       0.113500
     23 H2          -3.5970     1.1170    -1.3080 ha         1 6P8       0.130000
     24 H3           0.2250    -1.8350     0.1260 ha         1 6P8       0.108000
     25 H4           2.6380    -2.1280     0.0730 ha         1 6P8       0.152000
     26 H5           3.1860     2.1640     0.0790 ha         1 6P8       0.132000
     27 H6          -1.1180     3.8500     0.1920 h5         1 6P8       0.045100
     28 H7           7.0850    -0.1040     0.8230 hc         1 6P8       0.066367
     29 H8           7.5320    -1.6510    -0.0110 hc         1 6P8       0.066367
     30 H9           7.0370    -0.1400    -0.8830 hc         1 6P8       0.066367
     31 H10         -7.2670    -0.9620    -0.4360 ha         1 6P8       0.116000
     32 H11          4.9860     0.8120     0.0130 hn         1 6P8       0.154000
     33 H12         -1.6040    -1.3260     0.5800 hn         1 6P8       0.496000
     34 H13         -3.5700    -2.3010     1.3340 ha         1 6P8       0.130000
     35 H14         -6.0230    -2.5540     1.0250 ha         1 6P8       0.113500
@<TRIPOS>BOND
     1     1     2 ar  
     2     1    13 ar  
     3     1    22 1   
     4     2     3 ar  
     5     2    23 1   
     6     3    19 1   
     7     3    20 ar  
     8     4     5 ar  
     9     4     9 ar  
    10     4    18 ar  
    11     5     6 ar  
    12     5    24 1   
    13     6     7 ar  
    14     6    25 1   
    15     7     8 ar  
    16     7    15 1   
    17     8     9 ar  
    18     8    26 1   
    19     9    16 ar  
    20    10    16 ar  
    21    10    17 ar  
    22    10    27 1   
    23    11    12 1   
    24    11    14 2   
    25    11    15 1   
    26    12    28 1   
    27    12    29 1   
    28    12    30 1   
    29    13    21 ar  
    30    13    31 1   
    31    15    32 1   
    32    17    18 ar  
    33    18    19 1   
    34    19    33 1   
    35    20    21 ar  
    36    20    34 1   
    37    21    35 1   
@<TRIPOS>SUBSTRUCTURE
     1 6P8         1 TEMP              0 ****  ****    0 ROOT
