@<TRIPOS>MOLECULE
6P9
   94    99     1     0     0
SMALL
bcc


@<TRIPOS>ATOM
      1 C15         -4.1670     1.8150     0.3670 c6         1 6P9       0.102000
      2 C12        -11.9190    -0.6250     0.1300 c5         1 6P9      -0.079400
      3 C11        -11.2640    -1.6380     1.0910 c5         1 6P9      -0.079400
      4 C10         -9.7720    -1.2770     1.0750 c5         1 6P9       0.157800
      5 C13        -10.7870     0.3380    -0.2090 c5         1 6P9       0.157800
      6 C14         -5.5050     1.1370     0.6200 c6         1 6P9      -0.093900
      7 C02         -2.0120     0.8730     0.9840 c          1 6P9       0.692700
      8 N03         -3.0950     0.8510     0.1880 n          1 6P9      -0.462800
      9 C04         -3.3430    -0.1120    -0.8690 c6         1 6P9       0.102000
     10 C05         -4.6610    -0.8380    -0.6290 c6         1 6P9      -0.093900
     11 C06         -5.8330     0.1290    -0.4800 c6         1 6P9      -0.058700
     12 C07         -7.1340    -0.6310    -0.2330 c3         1 6P9      -0.074400
     13 C08         -8.3680     0.2610    -0.1930 c3         1 6P9       0.171800
     14 N09         -9.6010    -0.4940    -0.1380 n3         1 6P9      -0.718600
     15 C16         -0.8250     0.0520     0.5800 ca         1 6P9      -0.171600
     16 C17         -0.1770     0.1690    -0.6610 ca         1 6P9       0.195600
     17 N18         -0.6060     1.0240    -1.6600 nu         1 6P9      -0.676000
     18 C19         -1.0540     2.3340    -1.5100 ca         1 6P9       0.167600
     19 C20         -0.6630     3.1360    -0.4370 ca         1 6P9      -0.172500
     20 C21         -1.1370     4.4350    -0.3320 ca         1 6P9      -0.097500
     21 C22         -1.9760     4.9680    -1.3020 ca         1 6P9      -0.158000
     22 C23         -2.3380     4.1810    -2.3870 ca         1 6P9      -0.097500
     23 C24         -1.8910     2.8730    -2.4890 ca         1 6P9      -0.172500
     24 C25          0.9210    -0.6550    -0.9240 ca         1 6P9      -0.180000
     25 C26          1.3870    -1.5620     0.0140 ca         1 6P9      -0.094600
     26 C27          2.4850    -2.5230    -0.3270 c          1 6P9       0.681700
     27 N28          3.6230    -2.0310    -0.8540 n          1 6P9      -0.473800
     28 C29          4.6320    -2.9290    -1.3960 c6         1 6P9       0.098000
     29 C30          5.9440    -2.8220    -0.6340 c6         1 6P9      -0.095400
     30 C31          6.4510    -1.3820    -0.6170 c6         1 6P9      -0.059700
     31 C32          7.7720    -1.2620     0.1370 c3         1 6P9      -0.074400
     32 C33          8.4230     0.1080    -0.0000 c3         1 6P9       0.171800
     33 N34          9.7970     0.1210     0.4480 n3         1 6P9      -0.718600
     34 C35         10.4770     1.3760     0.1850 c5         1 6P9       0.157800
     35 C36         11.7840     1.2470     0.9630 c5         1 6P9      -0.079400
     36 C37         11.4280     0.3100     2.1370 c5         1 6P9      -0.079400
     37 C38          9.9730    -0.0940     1.8750 c5         1 6P9       0.157800
     38 C39          5.3550    -0.4820    -0.0500 c6         1 6P9      -0.095400
     39 C40          4.0420    -0.6380    -0.8080 c6         1 6P9       0.098000
     40 O41          2.2850    -3.7200    -0.1540 o          1 6P9      -0.596100
     41 C42          0.7640    -1.6510     1.2550 ca         1 6P9      -0.125000
     42 C43         -0.3110    -0.8260     1.5310 ca         1 6P9      -0.067000
     43 H1          -4.2230     2.4210    -0.5450 h1         1 6P9       0.055450
     44 H3         -12.7710    -0.1120     0.5730 hc         1 6P9       0.046200
     45 H4         -11.6680    -1.5690     2.1010 hc         1 6P9       0.046200
     46 H5         -11.4290    -2.6610     0.7530 hc         1 6P9       0.046200
     47 H6          -9.5140    -0.6870     1.9710 h1         1 6P9       0.034200
     48 H7          -9.1250    -2.1560     1.0770 h1         1 6P9       0.034200
     49 H8         -10.8860     0.7950    -1.1970 h1         1 6P9       0.034200
     50 H9         -10.7530     1.1590     0.5290 h1         1 6P9       0.034200
     51 H10         -5.4820     0.6280     1.5900 hc         1 6P9       0.049450
     52 H11         -3.3790     0.4080    -1.8320 h1         1 6P9       0.055450
     53 H12         -2.5340    -0.8360    -0.9170 h1         1 6P9       0.055450
     54 H13         -4.8350    -1.5210    -1.4640 hc         1 6P9       0.049450
     55 H14         -4.5740    -1.4540     0.2730 hc         1 6P9       0.049450
     56 H15         -5.9300     0.6830    -1.4250 hc         1 6P9       0.045700
     57 H16         -7.2680    -1.3720    -1.0280 hc         1 6P9       0.048200
     58 H17         -7.0450    -1.1940     0.7020 hc         1 6P9       0.048200
     59 H18         -8.3020     0.9600     0.6600 h1         1 6P9       0.028700
     60 H19         -8.3880     0.8780    -1.0970 h1         1 6P9       0.028700
     61 H21         -0.3840     0.7430    -2.6020 hn         1 6P9       0.435800
     62 H22          0.0160     2.7540     0.3140 ha         1 6P9       0.138500
     63 H23         -0.8290     5.0410     0.5100 ha         1 6P9       0.132000
     64 H24         -2.3350     5.9850    -1.2160 ha         1 6P9       0.133000
     65 H25         -2.9840     4.5820    -3.1580 ha         1 6P9       0.132000
     66 H26         -2.1950     2.2610    -3.3300 ha         1 6P9       0.138500
     67 H27          1.4110    -0.5690    -1.8870 ha         1 6P9       0.136000
     68 H28          4.2520    -3.9470    -1.3840 h1         1 6P9       0.055450
     69 H29          4.7980    -2.6510    -2.4430 h1         1 6P9       0.055450
     70 H30          5.8050    -3.1800     0.3920 hc         1 6P9       0.051700
     71 H31          6.6800    -3.4780    -1.1060 hc         1 6P9       0.051700
     72 H32          6.6270    -1.0820    -1.6600 hc         1 6P9       0.045700
     73 H33          7.6080    -1.5070     1.1920 hc         1 6P9       0.049700
     74 H34          8.4710    -2.0090    -0.2530 hc         1 6P9       0.049700
     75 H35          8.4120     0.3940    -1.0570 h1         1 6P9       0.027200
     76 H36          7.8290     0.8710     0.5340 h1         1 6P9       0.027200
     77 H38         10.6230     1.5250    -0.8870 h1         1 6P9       0.034450
     78 H39          9.8970     2.2390     0.5590 h1         1 6P9       0.034450
     79 H40         12.5590     0.8030     0.3370 hc         1 6P9       0.046450
     80 H41         12.1540     2.2170     1.2940 hc         1 6P9       0.046450
     81 H42         12.0810    -0.5620     2.1500 hc         1 6P9       0.046450
     82 H43         11.5300     0.8000     3.1050 hc         1 6P9       0.046450
     83 H44          9.2890     0.5440     2.4610 h1         1 6P9       0.034450
     84 H45          9.7650    -1.1290     2.1530 h1         1 6P9       0.034450
     85 H46          5.1960    -0.7240     1.0070 hc         1 6P9       0.051700
     86 H47          5.6450     0.5700    -0.0980 hc         1 6P9       0.051700
     87 H48          4.1640    -0.2700    -1.8330 h1         1 6P9       0.055450
     88 H49          3.2750    -0.0310    -0.3360 h1         1 6P9       0.055450
     89 H50          1.1180    -2.3500     2.0010 ha         1 6P9       0.152000
     90 H51         -0.7930    -0.8910     2.4980 ha         1 6P9       0.150000
     91 H52         -3.9150     2.4870     1.1830 h1         1 6P9       0.055450
     92 H53         -6.2710     1.9120     0.6870 hc         1 6P9       0.049450
     93 H2         -12.2740    -1.1260    -0.7710 hc         1 6P9       0.046200
     94 O01         -1.9530     1.5260     2.0200 o          1 6P9      -0.607100
@<TRIPOS>BOND
     1     1     6 1   
     2     1     8 1   
     3     1    43 1   
     4     1    91 1   
     5     2     3 1   
     6     2     5 1   
     7     2    44 1   
     8     2    93 1   
     9     3     4 1   
    10     3    45 1   
    11     3    46 1   
    12     4    14 1   
    13     4    47 1   
    14     4    48 1   
    15     5    14 1   
    16     5    49 1   
    17     5    50 1   
    18     6    11 1   
    19     6    51 1   
    20     6    92 1   
    21     7     8 1   
    22     7    15 1   
    23     7    94 2   
    24     8     9 1   
    25     9    10 1   
    26     9    52 1   
    27     9    53 1   
    28    10    11 1   
    29    10    54 1   
    30    10    55 1   
    31    11    12 1   
    32    11    56 1   
    33    12    13 1   
    34    12    57 1   
    35    12    58 1   
    36    13    14 1   
    37    13    59 1   
    38    13    60 1   
    39    15    16 ar  
    40    15    42 ar  
    41    16    17 1   
    42    16    24 ar  
    43    17    18 1   
    44    17    61 1   
    45    18    19 ar  
    46    18    23 ar  
    47    19    20 ar  
    48    19    62 1   
    49    20    21 ar  
    50    20    63 1   
    51    21    22 ar  
    52    21    64 1   
    53    22    23 ar  
    54    22    65 1   
    55    23    66 1   
    56    24    25 ar  
    57    24    67 1   
    58    25    26 1   
    59    25    41 ar  
    60    26    27 1   
    61    26    40 2   
    62    27    28 1   
    63    27    39 1   
    64    28    29 1   
    65    28    68 1   
    66    28    69 1   
    67    29    30 1   
    68    29    70 1   
    69    29    71 1   
    70    30    31 1   
    71    30    38 1   
    72    30    72 1   
    73    31    32 1   
    74    31    73 1   
    75    31    74 1   
    76    32    33 1   
    77    32    75 1   
    78    32    76 1   
    79    33    34 1   
    80    33    37 1   
    81    34    35 1   
    82    34    77 1   
    83    34    78 1   
    84    35    36 1   
    85    35    79 1   
    86    35    80 1   
    87    36    37 1   
    88    36    81 1   
    89    36    82 1   
    90    37    83 1   
    91    37    84 1   
    92    38    39 1   
    93    38    85 1   
    94    38    86 1   
    95    39    87 1   
    96    39    88 1   
    97    41    42 ar  
    98    41    89 1   
    99    42    90 1   
@<TRIPOS>SUBSTRUCTURE
     1 6P9         1 TEMP              0 ****  ****    0 ROOT
