@<TRIPOS>MOLECULE
6P9
   94    99     1     0     0
SMALL
No Charge or Current Charge


@<TRIPOS>ATOM
      1 C15         -4.2780     2.0040     0.1970 c6         1 6P9       0.102000
      2 C12        -12.0470    -0.9400     0.2490 c5         1 6P9      -0.079400
      3 C11        -11.2990    -1.9570     1.1680 c5         1 6P9      -0.079400
      4 C10         -9.8650    -1.3710     1.2900 c5         1 6P9       0.157800
      5 C13        -10.9970     0.1740     0.0040 c5         1 6P9       0.157800
      6 C14         -5.5880     1.2600     0.5450 c6         1 6P9      -0.093900
      7 C02         -2.1060     0.9450     0.9670 c          1 6P9       0.625700
      8 N03         -3.1470     1.0590     0.0160 n          1 6P9      -0.395800
      9 C04         -3.4090     0.0240    -1.0180 c6         1 6P9       0.102000
     10 C05         -4.7020    -0.7670    -0.7020 c6         1 6P9      -0.093900
     11 C06         -5.9200     0.1790    -0.5220 c6         1 6P9      -0.058700
     12 C07         -7.2090    -0.6290    -0.1800 c3         1 6P9      -0.074400
     13 C08         -8.5090     0.2080    -0.1140 c3         1 6P9       0.171800
     14 N09         -9.7400    -0.5990     0.0340 n3         1 6P9      -0.718600
     15 C16         -0.8790     0.1370     0.6340 ca         1 6P9      -0.171600
     16 C17         -0.1640     0.2600    -0.5820 ca         1 6P9       0.334000
     17 N18         -0.4720     1.1890    -1.5800 nu         1 6P9      -1.008000
     18 C19         -0.9270     2.5070    -1.5510 ca         1 6P9       0.306000
     19 C20         -0.6950     3.3340    -0.4380 ca         1 6P9      -0.154500
     20 C21         -1.1720     4.6570    -0.4240 ca         1 6P9      -0.079500
     21 C22         -1.8750     5.1590    -1.5330 ca         1 6P9      -0.140000
     22 C23         -2.0930     4.3420    -2.6550 ca         1 6P9      -0.079500
     23 C24         -1.6140     3.0200    -2.6630 ca         1 6P9      -0.154500
     24 C25          0.9310    -0.5840    -0.8290 ca         1 6P9      -0.162000
     25 C26          1.3810    -1.5150     0.1350 ca         1 6P9      -0.094600
     26 C27          2.5580    -2.4390    -0.1230 c          1 6P9       0.614700
     27 N28          3.6020    -1.9980    -0.9710 n          1 6P9      -0.406800
     28 C29          4.6100    -2.9480    -1.5130 c6         1 6P9       0.098000
     29 C30          5.9540    -2.8530    -0.7540 c6         1 6P9      -0.095400
     30 C31          6.5060    -1.4040    -0.7720 c6         1 6P9      -0.059700
     31 C32          7.8550    -1.3090     0.0050 c3         1 6P9      -0.074400
     32 C33          8.5560     0.0680    -0.0650 c3         1 6P9       0.171800
     33 N34          9.9130     0.0860     0.5250 n3         1 6P9      -0.718600
     34 C35         10.6350     1.3650     0.3830 c5         1 6P9       0.157800
     35 C36         11.9470     1.0610     1.1510 c5         1 6P9      -0.079400
     36 C37         11.5000     0.0670     2.2690 c5         1 6P9      -0.079400
     37 C38          9.9920    -0.1710     1.9800 c5         1 6P9       0.157800
     38 C39          5.4250    -0.4340    -0.2210 c6         1 6P9      -0.095400
     39 C40          4.0800    -0.5860    -0.9730 c6         1 6P9       0.098000
     40 O41          2.5570    -3.5800     0.3260 o          1 6P9      -0.596100
     41 C42          0.6760    -1.6110     1.3500 ca         1 6P9      -0.107000
     42 C43         -0.4310    -0.7870     1.6000 ca         1 6P9      -0.049000
     43 H1          -4.4160     2.5670    -0.7380 h1         1 6P9       0.055450
     44 H3         -12.9590    -0.5450     0.7120 hc         1 6P9       0.046200
     45 H4         -11.7740    -2.0620     2.1500 hc         1 6P9       0.046200
     46 H5         -11.2790    -2.9530     0.7100 hc         1 6P9       0.046200
     47 H6          -9.7810    -0.7160     2.1680 h1         1 6P9       0.034200
     48 H7          -9.1090    -2.1630     1.3810 h1         1 6P9       0.034200
     49 H8         -11.1550     0.6870    -0.9550 h1         1 6P9       0.034200
     50 H9         -11.0220     0.9280     0.8040 h1         1 6P9       0.034200
     51 H10         -5.4900     0.7940     1.5350 hc         1 6P9       0.049450
     52 H11         -3.5070     0.5150    -1.9960 h1         1 6P9       0.055450
     53 H12         -2.5750    -0.6860    -1.0910 h1         1 6P9       0.055450
     54 H13         -4.8960    -1.4850    -1.5100 hc         1 6P9       0.049450
     55 H14         -4.5490    -1.3570     0.2120 hc         1 6P9       0.049450
     56 H15         -6.1110     0.6810    -1.4810 hc         1 6P9       0.045700
     57 H16         -7.3530    -1.4110    -0.9360 hc         1 6P9       0.048200
     58 H17         -7.0710    -1.1480     0.7750 hc         1 6P9       0.048200
     59 H18         -8.4340     0.9200     0.7190 h1         1 6P9       0.028700
     60 H19         -8.5780     0.7980    -1.0380 h1         1 6P9       0.028700
     61 H21         -0.2610     0.8580    -2.5210 hn         1 6P9       0.491000
     62 H22         -0.1430     2.9560     0.4160 ha         1 6P9       0.120500
     63 H23         -0.9950     5.2910     0.4420 ha         1 6P9       0.114000
     64 H24         -2.2460     6.1820    -1.5240 ha         1 6P9       0.115000
     65 H25         -2.6340     4.7310    -3.5150 ha         1 6P9       0.114000
     66 H26         -1.7910     2.3900    -3.5300 ha         1 6P9       0.120500
     67 H27          1.4440    -0.5100    -1.7840 ha         1 6P9       0.118000
     68 H28          4.2330    -3.9790    -1.4710 h1         1 6P9       0.055450
     69 H29          4.7780    -2.7150    -2.5740 h1         1 6P9       0.055450
     70 H30          5.8100    -3.1890     0.2830 hc         1 6P9       0.051700
     71 H31          6.6790    -3.5410    -1.2090 hc         1 6P9       0.051700
     72 H32          6.7250    -1.1300    -1.8140 hc         1 6P9       0.045700
     73 H33          7.6880    -1.5710     1.0570 hc         1 6P9       0.049700
     74 H34          8.5500    -2.0590    -0.3910 hc         1 6P9       0.049700
     75 H35          8.6230     0.3590    -1.1220 h1         1 6P9       0.027200
     76 H36          7.9270     0.8160     0.4370 h1         1 6P9       0.027200
     77 H38         10.8230     1.6300    -0.6670 h1         1 6P9       0.034450
     78 H39         10.0820     2.1920     0.8520 h1         1 6P9       0.034450
     79 H40         12.6870     0.5950     0.4890 hc         1 6P9       0.046450
     80 H41         12.4030     1.9720     1.5550 hc         1 6P9       0.046450
     81 H42         12.0650    -0.8700     2.2050 hc         1 6P9       0.046450
     82 H43         11.6570     0.4700     3.2750 hc         1 6P9       0.046450
     83 H44          9.3670     0.5380     2.5430 h1         1 6P9       0.034450
     84 H45          9.6820    -1.1890     2.2520 h1         1 6P9       0.034450
     85 H46          5.2640    -0.6250     0.8490 hc         1 6P9       0.051700
     86 H47          5.7620     0.6080    -0.3060 hc         1 6P9       0.051700
     87 H48          4.2020    -0.2530    -2.0140 h1         1 6P9       0.055450
     88 H49          3.3510     0.0830    -0.4980 h1         1 6P9       0.055450
     89 H50          0.9900    -2.3260     2.1080 ha         1 6P9       0.134000
     90 H51         -0.9630    -0.8860     2.5450 ha         1 6P9       0.132000
     91 H52         -4.0490     2.7410     0.9800 h1         1 6P9       0.055450
     92 H53         -6.4030     1.9930     0.6210 hc         1 6P9       0.049450
     93 H2         -12.3420    -1.4120    -0.6950 hc         1 6P9       0.046200
     94 O01         -2.1750     1.5270     2.0440 o          1 6P9      -0.607100
@<TRIPOS>BOND
     1     1     6 1   
     2     1     8 1   
     3     1    43 1   
     4     1    91 1   
     5     2     3 1   
     6     2     5 1   
     7     2    44 1   
     8     2    93 1   
     9     3     4 1   
    10     3    45 1   
    11     3    46 1   
    12     4    14 1   
    13     4    47 1   
    14     4    48 1   
    15     5    14 1   
    16     5    49 1   
    17     5    50 1   
    18     6    11 1   
    19     6    51 1   
    20     6    92 1   
    21     7     8 1   
    22     7    15 1   
    23     7    94 2   
    24     8     9 1   
    25     9    10 1   
    26     9    52 1   
    27     9    53 1   
    28    10    11 1   
    29    10    54 1   
    30    10    55 1   
    31    11    12 1   
    32    11    56 1   
    33    12    13 1   
    34    12    57 1   
    35    12    58 1   
    36    13    14 1   
    37    13    59 1   
    38    13    60 1   
    39    15    16 ar  
    40    15    42 ar  
    41    16    17 1   
    42    16    24 ar  
    43    17    18 1   
    44    17    61 1   
    45    18    19 ar  
    46    18    23 ar  
    47    19    20 ar  
    48    19    62 1   
    49    20    21 ar  
    50    20    63 1   
    51    21    22 ar  
    52    21    64 1   
    53    22    23 ar  
    54    22    65 1   
    55    23    66 1   
    56    24    25 ar  
    57    24    67 1   
    58    25    26 1   
    59    25    41 ar  
    60    26    27 1   
    61    26    40 2   
    62    27    28 1   
    63    27    39 1   
    64    28    29 1   
    65    28    68 1   
    66    28    69 1   
    67    29    30 1   
    68    29    70 1   
    69    29    71 1   
    70    30    31 1   
    71    30    38 1   
    72    30    72 1   
    73    31    32 1   
    74    31    73 1   
    75    31    74 1   
    76    32    33 1   
    77    32    75 1   
    78    32    76 1   
    79    33    34 1   
    80    33    37 1   
    81    34    35 1   
    82    34    77 1   
    83    34    78 1   
    84    35    36 1   
    85    35    79 1   
    86    35    80 1   
    87    36    37 1   
    88    36    81 1   
    89    36    82 1   
    90    37    83 1   
    91    37    84 1   
    92    38    39 1   
    93    38    85 1   
    94    38    86 1   
    95    39    87 1   
    96    39    88 1   
    97    41    42 ar  
    98    41    89 1   
    99    42    90 1   
@<TRIPOS>SUBSTRUCTURE
     1 6P9         1 TEMP              0 ****  ****    0 ROOT
