@<TRIPOS>MOLECULE
6PB
   25    27     1     0     0
SMALL
bcc


@<TRIPOS>ATOM
      1 N1          -2.3810    -1.3790    -0.2470 nb         1 6PB      -0.767000
      2 C2          -3.6560    -0.9910    -0.4210 ca         1 6PB       0.888900
      3 N2          -4.5430    -1.9740    -0.7200 nv         1 6PB      -0.934500
      4 N3          -4.1290     0.2460    -0.2970 nb         1 6PB      -0.716000
      5 C4          -3.2200     1.1440     0.0530 ca         1 6PB       0.607300
      6 C5          -1.8660     0.8340     0.2590 ca         1 6PB      -0.371800
      7 C6          -1.4640    -0.4820     0.0820 cp         1 6PB       0.569800
      8 N7          -1.2890     2.0230     0.6340 na         1 6PB      -0.245300
      9 C8          -2.2710     2.9430     0.6300 cc         1 6PB       0.444700
     10 N9          -3.4420     2.4690     0.2840 nd         1 6PB      -0.652700
     11 C61         -0.0770    -0.9510     0.2590 cp         1 6PB      -0.152500
     12 C62          0.9960    -0.1410    -0.1120 ca         1 6PB      -0.097000
     13 C63          2.2910    -0.6050     0.0630 ca         1 6PB      -0.026900
     14 BR63         3.7370     0.4920    -0.4550 br         1 6PB      -0.094100
     15 C64          2.5420    -1.8570     0.6020 ca         1 6PB      -0.088000
     16 C65          1.4670    -2.6590     0.9600 ca         1 6PB      -0.133000
     17 C66          0.1660    -2.2180     0.7850 ca         1 6PB      -0.069000
     18 HN2         -4.1700    -2.8370    -1.0760 hn         1 6PB       0.430300
     19 HN2A        -5.4270    -1.6940    -1.1110 hn         1 6PB       0.430300
     20 H8          -2.0710     3.9700     0.8950 h5         1 6PB       0.066800
     21 H62          0.8220     0.8230    -0.5710 ha         1 6PB       0.144000
     22 H64          3.5540    -2.2120     0.7410 ha         1 6PB       0.150000
     23 H65          1.6550    -3.6370     1.3820 ha         1 6PB       0.141000
     24 H66         -0.6650    -2.8510     1.0650 ha         1 6PB       0.157000
     25 HN7         -0.3350     2.1930     0.9120 hn         1 6PB       0.315700
@<TRIPOS>BOND
     1     1     2 ar  
     2     1     7 ar  
     3     2     3 1   
     4     2     4 ar  
     5     3    18 1   
     6     3    19 1   
     7     4     5 ar  
     8     5     6 ar  
     9     5    10 1   
    10     6     7 ar  
    11     6     8 1   
    12     7    11 1   
    13     8     9 1   
    14     8    25 1   
    15     9    10 2   
    16     9    20 1   
    17    11    12 ar  
    18    11    17 ar  
    19    12    13 ar  
    20    12    21 1   
    21    13    14 1   
    22    13    15 ar  
    23    15    16 ar  
    24    15    22 1   
    25    16    17 ar  
    26    16    23 1   
    27    17    24 1   
@<TRIPOS>SUBSTRUCTURE
     1 6PB         1 TEMP              0 ****  ****    0 ROOT
