@<TRIPOS>MOLECULE
6PB
   25    27     1     0     0
SMALL
No Charge or Current Charge


@<TRIPOS>ATOM
      1 N1          -2.4350    -1.4220    -0.2910 nb         1 6PB      -0.241000
      2 C2          -3.7080    -0.9980    -0.4700 ca         1 6PB       0.362900
      3 N2          -4.6030    -1.9540    -0.8400 nv         1 6PB      -1.044900
      4 N3          -4.1940     0.2560    -0.3210 nb         1 6PB      -0.190000
      5 C4          -3.2890     1.1770     0.0530 ca         1 6PB       0.279000
      6 C5          -1.9930     0.8200     0.2350 ca         1 6PB      -0.241200
      7 C6          -1.5140    -0.4970     0.0650 cp         1 6PB       0.241500
      8 N7          -1.2760     1.8970     0.6600 na         1 6PB      -0.295600
      9 C8          -2.1880     2.9500     0.7020 cc         1 6PB       0.444700
     10 N9          -3.4280     2.5370     0.3360 nd         1 6PB      -0.652700
     11 C61         -0.0960    -0.9400     0.2620 cp         1 6PB      -0.152500
     12 C62          0.9950    -0.1450    -0.1740 ca         1 6PB      -0.079000
     13 C63          2.3210    -0.5730     0.0090 ca         1 6PB      -0.026900
     14 Br63         3.7660     0.5250    -0.5920 br         1 6PB      -0.094100
     15 C64          2.5880    -1.8050     0.6250 ca         1 6PB      -0.070000
     16 C65          1.5230    -2.6160     1.0510 ca         1 6PB      -0.115000
     17 C66          0.1960    -2.1900     0.8680 ca         1 6PB      -0.051000
     18 HN2         -4.2530    -2.8570    -1.1530 hn         1 6PB       0.485500
     19 HN2A        -5.5190    -1.6700    -1.1800 hn         1 6PB       0.485500
     20 H8          -1.9050     3.9520     1.0050 h5         1 6PB       0.066800
     21 H62          0.8130     0.8000    -0.6810 ha         1 6PB       0.126000
     22 H64          3.6150    -2.1350     0.7660 ha         1 6PB       0.132000
     23 H65          1.7250    -3.5740     1.5240 ha         1 6PB       0.123000
     24 H66         -0.6160    -2.8310     1.2080 ha         1 6PB       0.139000
     25 HN7         -0.3010     1.9410     0.9290 hn         1 6PB       0.366000
@<TRIPOS>BOND
     1     1     2 ar  
     2     1     7 ar  
     3     2     3 1   
     4     2     4 ar  
     5     3    18 1   
     6     3    19 1   
     7     4     5 ar  
     8     5     6 ar  
     9     5    10 1   
    10     6     7 ar  
    11     6     8 1   
    12     7    11 1   
    13     8     9 1   
    14     8    25 1   
    15     9    10 2   
    16     9    20 1   
    17    11    12 ar  
    18    11    17 ar  
    19    12    13 ar  
    20    12    21 1   
    21    13    14 1   
    22    13    15 ar  
    23    15    16 ar  
    24    15    22 1   
    25    16    17 ar  
    26    16    23 1   
    27    17    24 1   
@<TRIPOS>SUBSTRUCTURE
     1 6PB         1 TEMP              0 ****  ****    0 ROOT
