@<TRIPOS>MOLECULE
6PC
   13    13     1     0     0
SMALL
bcc


@<TRIPOS>ATOM
      1 C1           0.1410    -0.0360     0.0240 ca         1 6PC       0.355800
      2 C3          -1.7810     1.2010     0.0340 ca         1 6PC       0.370200
      3 C4          -2.5900     0.0730     0.0190 ca         1 6PC      -0.290300
      4 C2           1.6720    -0.0710     0.0230 c          1 6PC       0.822100
      5 C5          -1.9720    -1.1680     0.0070 ca         1 6PC      -0.130000
      6 C6          -0.5880    -1.2230     0.0130 ca         1 6PC      -0.224300
      7 O1           2.1870    -1.2050     0.0530 o          1 6PC      -0.808800
      8 O2           2.2560     1.0230    -0.0080 o          1 6PC      -0.808800
      9 N2          -0.4560     1.1540     0.0340 nb         1 6PC      -0.637000
     10 H3          -2.2300     2.1890     0.0450 h4         1 6PC      -0.012900
     11 H4          -3.6670     0.1710     0.0170 ha         1 6PC       0.107000
     12 H5          -2.5610    -2.0770    -0.0050 ha         1 6PC       0.105000
     13 H6          -0.0700    -2.1710     0.0040 ha         1 6PC       0.154000
@<TRIPOS>BOND
     1     1     4 1   
     2     1     6 ar  
     3     1     9 ar  
     4     2     3 ar  
     5     2     9 ar  
     6     2    10 1   
     7     3     5 ar  
     8     3    11 1   
     9     4     7 1   
    10     4     8 1   
    11     5     6 ar  
    12     5    12 1   
    13     6    13 1   
@<TRIPOS>SUBSTRUCTURE
     1 6PC         1 TEMP              0 ****  ****    0 ROOT
