@<TRIPOS>MOLECULE
6PC
   13    13     1     0     0
SMALL
No Charge or Current Charge


@<TRIPOS>ATOM
      1 C1           0.1590    -0.0200     0.0220 ca         1 6PC       0.290500
      2 C3          -1.8260     1.2310     0.0280 ca         1 6PC       0.304900
      3 C4          -2.6190     0.0730     0.0200 ca         1 6PC      -0.207000
      4 C2           1.7130    -0.0830     0.0230 c          1 6PC       0.611500
      5 C5          -1.9950    -1.1820     0.0120 ca         1 6PC      -0.112000
      6 C6          -0.5910    -1.2240     0.0130 ca         1 6PC      -0.141000
      7 O1           2.2640    -1.1800     0.0170 o          1 6PC      -0.703500
      8 O2           2.3610     0.9610     0.0300 o          1 6PC      -0.703500
      9 N2          -0.4750     1.1970     0.0290 nb         1 6PC      -0.637000
     10 H3          -2.2850     2.2180     0.0340 h4         1 6PC      -0.012900
     11 H4          -3.7020     0.1530     0.0190 ha         1 6PC       0.089000
     12 H5          -2.5810    -2.0980     0.0060 ha         1 6PC       0.087000
     13 H6          -0.0830    -2.1850     0.0080 ha         1 6PC       0.136000
@<TRIPOS>BOND
     1     1     4 1   
     2     1     6 ar  
     3     1     9 ar  
     4     2     3 ar  
     5     2     9 ar  
     6     2    10 1   
     7     3     5 ar  
     8     3    11 1   
     9     4     7 1   
    10     4     8 1   
    11     5     6 ar  
    12     5    12 1   
    13     6    13 1   
@<TRIPOS>SUBSTRUCTURE
     1 6PC         1 TEMP              0 ****  ****    0 ROOT
