@<TRIPOS>MOLECULE
6PD
  110   116     1     0     0
SMALL
abcg2


@<TRIPOS>ATOM
      1 C13         12.5000    -5.7510     3.3860 c6         1 6PD      -0.054700
      2 C15         12.5760    -4.6040     1.1320 c6         1 6PD       0.099000
      3 C17         12.5160    -6.8240     5.7350 c3         1 6PD       0.173800
      4 C20         13.9110   -10.1090     4.7310 c5         1 6PD      -0.078900
      5 C21         12.6010   -10.5130     5.4580 c5         1 6PD      -0.078900
      6 C22         12.0710    -9.1970     6.0440 c5         1 6PD       0.158300
      7 C26         11.7870     0.6120     3.1110 ca         1 6PD      -0.135500
      8 C28         12.4590     1.7950     5.1090 ca         1 6PD       0.110100
      9 O01         13.8630     1.2190    -2.2360 o          1 6PD      -0.605100
     10 C03         12.2590     0.0660    -0.9240 ca         1 6PD      -0.173600
     11 C04         12.5230    -0.3430     0.3910 ca         1 6PD       0.318000
     12 C05         11.9540    -1.5330     0.8520 ca         1 6PD      -0.128000
     13 C06         11.1190    -2.2910     0.0400 ca         1 6PD      -0.103600
     14 C07         10.8580    -1.8750    -1.2650 ca         1 6PD      -0.098000
     15 C08         11.4490    -0.7160    -1.7430 ca         1 6PD      -0.059000
     16 C09         10.3980    -3.4870     0.5910 c          1 6PD       0.612700
     17 N10         11.1210    -4.4650     1.1760 n          1 6PD      -0.407800
     18 C11         10.4580    -5.5480     1.8990 c6         1 6PD       0.099000
     19 C12         10.9760    -5.6140     3.3350 c6         1 6PD      -0.091900
     20 C14         13.1520    -4.6490     2.5440 c6         1 6PD      -0.091900
     21 C16         13.0530    -5.7330     4.8110 c3         1 6PD      -0.067400
     22 N18         12.6650    -8.1660     5.1990 n3         1 6PD      -0.726600
     23 C19         14.0460    -8.6050     4.9990 c5         1 6PD       0.158300
     24 O23          9.1630    -3.5150     0.5190 o          1 6PD      -0.609100
     25 C25         13.0330     0.8260     2.5260 ca         1 6PD       0.271000
     26 C27         11.5040     1.0840     4.3890 ca         1 6PD      -0.131000
     27 C29         13.7150     2.0010     4.5330 ca         1 6PD      -0.131000
     28 C30         14.0010     1.5190     3.2680 ca         1 6PD      -0.135500
     29 C32         10.9360     2.4710     6.8780 c3         1 6PD       0.425800
     30 N33         10.2800     3.6320     6.3610 n3         1 6PD      -0.793600
     31 C34          9.2790     3.4610     5.3040 c5         1 6PD       0.180800
     32 C35          8.6610     4.8570     5.1560 c5         1 6PD      -0.080900
     33 C36          8.9220     5.5600     6.5130 c5         1 6PD      -0.080900
     34 C37          9.6760     4.5240     7.3550 c5         1 6PD       0.180800
     35 N38         12.3050     2.4850    -1.1630 n          1 6PD      -0.403800
     36 C39         12.8380     3.7490    -1.6670 c6         1 6PD       0.099500
     37 C40         13.4770     4.5430    -0.5240 c6         1 6PD      -0.091400
     38 C41         12.7400     4.3340     0.8170 c6         1 6PD      -0.057700
     39 C42         11.2810     3.9510     0.5420 c6         1 6PD      -0.091400
     40 C43         11.1810     2.6270    -0.2270 c6         1 6PD       0.099500
     41 C44         12.8750     5.5780     1.6980 c3         1 6PD      -0.075400
     42 C45         12.5210     5.3570     3.1650 c3         1 6PD       0.169800
     43 N46         12.8240     6.5240     3.9860 n3         1 6PD      -0.722600
     44 C47         11.8950     7.6430     3.8000 c5         1 6PD       0.153300
     45 C48         12.1780     8.5740     4.9870 c5         1 6PD      -0.079900
     46 C49         12.8190     7.6520     6.0590 c5         1 6PD      -0.079900
     47 C50         12.7860     6.2580     5.4260 c5         1 6PD       0.153300
     48 H1          12.7590    -6.7130     2.9290 hc         1 6PD       0.061700
     49 H2          12.8020    -5.5420     0.6140 h1         1 6PD       0.057700
     50 H3          13.0060    -3.7950     0.5500 h1         1 6PD       0.057700
     51 H4          13.0230    -6.7380     6.7140 h1         1 6PD       0.029700
     52 H5          11.4520    -6.6590     5.9220 h1         1 6PD       0.029700
     53 H6          13.8260   -10.2950     3.6600 hc         1 6PD       0.046450
     54 H7          14.7770   -10.6620     5.0940 hc         1 6PD       0.046450
     55 H8          11.8840   -10.9360     4.7530 hc         1 6PD       0.046450
     56 H9          12.7710   -11.2540     6.2390 hc         1 6PD       0.046450
     57 H10         12.4040    -9.0850     7.0910 h1         1 6PD       0.034700
     58 H11         10.9820    -9.1230     6.0350 h1         1 6PD       0.034700
     59 H12         11.0110     0.0890     2.5700 ha         1 6PD       0.121500
     60 H13         12.1680    -1.8570     1.8610 ha         1 6PD       0.132000
     61 H14         10.1990    -2.4570    -1.8960 ha         1 6PD       0.134000
     62 H15         11.2600    -0.3930    -2.7600 ha         1 6PD       0.127000
     63 H16          9.3870    -5.3730     1.8710 h1         1 6PD       0.057700
     64 H17         10.6660    -6.4930     1.3850 h1         1 6PD       0.057700
     65 H18         10.6700    -4.7040     3.8640 hc         1 6PD       0.049200
     66 H19         10.4980    -6.4570     3.8370 hc         1 6PD       0.049200
     67 H20         14.2310    -4.8100     2.4870 hc         1 6PD       0.049200
     68 H21         12.9930    -3.6770     3.0250 hc         1 6PD       0.049200
     69 H22         14.1440    -5.8050     4.7610 hc         1 6PD       0.040200
     70 H23         12.8360    -4.7640     5.2730 hc         1 6PD       0.040200
     71 H25         14.6440    -8.4290     5.9120 h1         1 6PD       0.034700
     72 H26         14.5200    -8.0630     4.1810 h1         1 6PD       0.034700
     73 H27         14.0160     1.0130     0.7520 hn         1 6PD       0.493000
     74 H28         10.5220     0.8920     4.7950 ha         1 6PD       0.122500
     75 H29         14.4610     2.5530     5.0900 ha         1 6PD       0.122500
     76 H30         14.9760     1.6950     2.8290 ha         1 6PD       0.121500
     77 H31         11.0880     2.5850     7.9490 h2         1 6PD       0.049200
     78 H32         10.3660     1.5530     6.7040 h2         1 6PD       0.049200
     79 H34          8.5150     2.7240     5.5980 h1         1 6PD       0.037450
     80 H35          9.7430     3.1130     4.3830 h1         1 6PD       0.037450
     81 H36          9.1550     5.4010     4.3510 hc         1 6PD       0.049200
     82 H37          7.6000     4.7970     4.9140 hc         1 6PD       0.049200
     83 H38          9.5340     6.4500     6.3660 hc         1 6PD       0.049200
     84 H39          7.9990     5.8700     7.0030 hc         1 6PD       0.049200
     85 H40         10.4480     4.9650     7.9880 h1         1 6PD       0.037450
     86 H41          8.9760     3.9790     8.0070 h1         1 6PD       0.037450
     87 H42         13.5470     3.5360    -2.4590 h1         1 6PD       0.056700
     88 H43         12.0040     4.3070    -2.0990 h1         1 6PD       0.056700
     89 H44         14.5250     4.2580    -0.4110 hc         1 6PD       0.049200
     90 H45         13.4610     5.6020    -0.7940 hc         1 6PD       0.049200
     91 H46         13.2070     3.4930     1.3400 hc         1 6PD       0.050700
     92 H47         10.8020     4.7540    -0.0250 hc         1 6PD       0.049200
     93 H48         10.7210     3.8450     1.4720 hc         1 6PD       0.049200
     94 H49         10.2350     2.5740    -0.7730 h1         1 6PD       0.056700
     95 H50         11.2040     1.7970     0.4730 h1         1 6PD       0.056700
     96 H51         13.9110     5.9290     1.6560 hc         1 6PD       0.046700
     97 H52         12.2570     6.3740     1.2710 hc         1 6PD       0.046700
     98 H53         11.4580     5.0830     3.2720 h1         1 6PD       0.034200
     99 H54         13.1040     4.5140     3.5410 h1         1 6PD       0.034200
    100 H56         10.8510     7.2820     3.8370 h1         1 6PD       0.040200
    101 H57         12.0460     8.1230     2.8340 h1         1 6PD       0.040200
    102 H58         12.8690     9.3670     4.7010 hc         1 6PD       0.043450
    103 H59         11.2630     9.0480     5.3430 hc         1 6PD       0.043450
    104 H60         13.8460     7.9570     6.2600 hc         1 6PD       0.043450
    105 H61         12.2780     7.6750     7.0060 hc         1 6PD       0.043450
    106 H62         11.8610     5.7330     5.7050 h1         1 6PD       0.040200
    107 H63         13.6270     5.6260     5.7210 h1         1 6PD       0.040200
    108 N24         13.3520     0.4160     1.2210 nu         1 6PD      -0.991000
    109 C02         12.8790     1.3150    -1.4900 c          1 6PD       0.604700
    110 O31         12.2750     2.3010     6.3700 os         1 6PD      -0.357100
@<TRIPOS>BOND
     1     1    19 1   
     2     1    20 1   
     3     1    21 1   
     4     1    48 1   
     5     2    17 1   
     6     2    20 1   
     7     2    49 1   
     8     2    50 1   
     9     3    21 1   
    10     3    22 1   
    11     3    51 1   
    12     3    52 1   
    13     4     5 1   
    14     4    23 1   
    15     4    53 1   
    16     4    54 1   
    17     5     6 1   
    18     5    55 1   
    19     5    56 1   
    20     6    22 1   
    21     6    57 1   
    22     6    58 1   
    23     7    25 ar  
    24     7    26 ar  
    25     7    59 1   
    26     8    26 ar  
    27     8    27 ar  
    28     8   110 1   
    29     9   109 2   
    30    10    11 ar  
    31    10    15 ar  
    32    10   109 1   
    33    11    12 ar  
    34    11   108 1   
    35    12    13 ar  
    36    12    60 1   
    37    13    14 ar  
    38    13    16 1   
    39    14    15 ar  
    40    14    61 1   
    41    15    62 1   
    42    16    17 1   
    43    16    24 2   
    44    17    18 1   
    45    18    19 1   
    46    18    63 1   
    47    18    64 1   
    48    19    65 1   
    49    19    66 1   
    50    20    67 1   
    51    20    68 1   
    52    21    69 1   
    53    21    70 1   
    54    22    23 1   
    55    23    71 1   
    56    23    72 1   
    57    25    28 ar  
    58    25   108 1   
    59    26    74 1   
    60    27    28 ar  
    61    27    75 1   
    62    28    76 1   
    63    29    30 1   
    64    29    77 1   
    65    29    78 1   
    66    29   110 1   
    67    30    31 1   
    68    30    34 1   
    69    31    32 1   
    70    31    79 1   
    71    31    80 1   
    72    32    33 1   
    73    32    81 1   
    74    32    82 1   
    75    33    34 1   
    76    33    83 1   
    77    33    84 1   
    78    34    85 1   
    79    34    86 1   
    80    35    36 1   
    81    35    40 1   
    82    35   109 1   
    83    36    37 1   
    84    36    87 1   
    85    36    88 1   
    86    37    38 1   
    87    37    89 1   
    88    37    90 1   
    89    38    39 1   
    90    38    41 1   
    91    38    91 1   
    92    39    40 1   
    93    39    92 1   
    94    39    93 1   
    95    40    94 1   
    96    40    95 1   
    97    41    42 1   
    98    41    96 1   
    99    41    97 1   
   100    42    43 1   
   101    42    98 1   
   102    42    99 1   
   103    43    44 1   
   104    43    47 1   
   105    44    45 1   
   106    44   100 1   
   107    44   101 1   
   108    45    46 1   
   109    45   102 1   
   110    45   103 1   
   111    46    47 1   
   112    46   104 1   
   113    46   105 1   
   114    47   106 1   
   115    47   107 1   
   116    73   108 1   
@<TRIPOS>SUBSTRUCTURE
     1 6PD         1 TEMP              0 ****  ****    0 ROOT
