@<TRIPOS>MOLECULE
6PD
  110   116     1     0     0
SMALL
No Charge or Current Charge


@<TRIPOS>ATOM
      1 C13         12.4560    -5.7540     3.7600 c6         1 6PD      -0.054700
      2 C15         12.6390    -4.4060     1.5990 c6         1 6PD       0.099000
      3 C17         12.4230    -7.1310     6.0110 c3         1 6PD       0.173800
      4 C20         13.7940   -10.3200     4.5790 c5         1 6PD      -0.078900
      5 C21         12.4210   -10.7760     5.1690 c5         1 6PD      -0.078900
      6 C22         11.9920    -9.5870     6.0680 c5         1 6PD       0.158300
      7 C26         11.6750     0.6730     3.0340 ca         1 6PD      -0.135500
      8 C28         12.5600     1.8690     4.9710 ca         1 6PD       0.110100
      9 O01         13.3040     1.2240    -2.9480 o          1 6PD      -0.605100
     10 C03         12.1350     0.0340    -1.2610 ca         1 6PD      -0.173600
     11 C04         12.2890    -0.2590     0.1140 ca         1 6PD       0.318000
     12 C05         11.7980    -1.4750     0.6230 ca         1 6PD      -0.128000
     13 C06         11.1490    -2.4170    -0.2060 ca         1 6PD      -0.103600
     14 C07         10.9880    -2.1070    -1.5710 ca         1 6PD      -0.098000
     15 C08         11.4940    -0.9070    -2.0940 ca         1 6PD      -0.059000
     16 C09         10.5910    -3.7160     0.3430 c          1 6PD       0.612700
     17 N10         11.1560    -4.2400     1.5280 n          1 6PD      -0.407800
     18 C11         10.4260    -5.3150     2.2590 c6         1 6PD       0.099000
     19 C12         10.9260    -5.5210     3.7090 c6         1 6PD      -0.091900
     20 C14         13.1620    -4.5800     3.0420 c6         1 6PD      -0.091900
     21 C16         12.9930    -5.9300     5.2160 c3         1 6PD      -0.067400
     22 N18         12.6010    -8.4480     5.3560 n3         1 6PD      -0.726600
     23 C19         13.9970    -8.8940     5.1580 c5         1 6PD       0.158300
     24 O23          9.6110    -4.2440    -0.1720 o          1 6PD      -0.609100
     25 C25         12.8440     0.9650     2.3040 ca         1 6PD       0.271000
     26 C27         11.5360     1.1090     4.3650 ca         1 6PD      -0.131000
     27 C29         13.7270     2.1540     4.2430 ca         1 6PD      -0.131000
     28 C30         13.8640     1.7110     2.9150 ca         1 6PD      -0.135500
     29 C32         11.2460     2.4600     6.9950 c3         1 6PD       0.425800
     30 N33         10.4480     3.6570     6.6550 n3         1 6PD      -0.793600
     31 C34          9.8260     3.6750     5.3140 c5         1 6PD       0.180800
     32 C35          8.9250     4.9410     5.3690 c5         1 6PD      -0.080900
     33 C36          8.7420     5.2090     6.8960 c5         1 6PD      -0.080900
     34 C37          9.3090     3.9270     7.5500 c5         1 6PD       0.180800
     35 N38         12.5320     2.5250    -1.2240 n          1 6PD      -0.403800
     36 C39         13.2820     3.7210    -1.7140 c6         1 6PD       0.099500
     37 C40         13.0720     5.0070    -0.8710 c6         1 6PD      -0.091400
     38 C41         12.8020     4.6490     0.6060 c6         1 6PD      -0.057700
     39 C42         11.4700     3.8540     0.6890 c6         1 6PD      -0.091400
     40 C43         11.2790     2.8430    -0.4770 c6         1 6PD       0.099500
     41 C44         12.8130     5.8980     1.5360 c3         1 6PD      -0.075400
     42 C45         12.6310     5.5690     3.0360 c3         1 6PD       0.169800
     43 N46         12.8150     6.7200     3.9470 n3         1 6PD      -0.722600
     44 C47         11.8420     7.8240     3.8020 c5         1 6PD       0.153300
     45 C48         12.2080     8.7440     5.0000 c5         1 6PD      -0.079900
     46 C49         12.8700     7.7780     6.0340 c5         1 6PD      -0.079900
     47 C50         12.7100     6.3820     5.3810 c5         1 6PD       0.153300
     48 H1          12.6900    -6.6830     3.2200 hc         1 6PD       0.061700
     49 H2          12.9130    -5.2960     1.0150 h1         1 6PD       0.057700
     50 H3          13.1580    -3.5600     1.1310 h1         1 6PD       0.057700
     51 H4          12.9010    -7.1450     7.0000 h1         1 6PD       0.029700
     52 H5          11.3540    -6.9530     6.1820 h1         1 6PD       0.029700
     53 H6          13.7580   -10.2970     3.4840 hc         1 6PD       0.046450
     54 H7          14.6140   -10.9890     4.8610 hc         1 6PD       0.046450
     55 H8          11.6910   -10.9420     4.3680 hc         1 6PD       0.046450
     56 H9          12.4960   -11.7090     5.7370 hc         1 6PD       0.046450
     57 H10         12.4030    -9.6890     7.0840 h1         1 6PD       0.034700
     58 H11         10.9000    -9.5020     6.1470 h1         1 6PD       0.034700
     59 H12         10.8580     0.1320     2.5690 ha         1 6PD       0.121500
     60 H13         11.9350    -1.6940     1.6770 ha         1 6PD       0.132000
     61 H14         10.4850    -2.8080    -2.2350 ha         1 6PD       0.134000
     62 H15         11.3750    -0.7000    -3.1560 ha         1 6PD       0.127000
     63 H16          9.3540    -5.0750     2.2880 h1         1 6PD       0.057700
     64 H17         10.5340    -6.2570     1.7020 h1         1 6PD       0.057700
     65 H18         10.6630    -4.6400     4.3110 hc         1 6PD       0.049200
     66 H19         10.3920    -6.3730     4.1500 hc         1 6PD       0.049200
     67 H20         14.2470    -4.7500     3.0180 hc         1 6PD       0.049200
     68 H21         13.0040    -3.6470     3.6010 hc         1 6PD       0.049200
     69 H22         14.0860    -6.0210     5.1930 hc         1 6PD       0.040200
     70 H23         12.7870    -5.0200     5.7930 hc         1 6PD       0.040200
     71 H25         14.5420    -8.9280     6.1120 h1         1 6PD       0.034700
     72 H26         14.5560    -8.2490     4.4670 h1         1 6PD       0.034700
     73 H27         13.6060     1.2390     0.4590 hn         1 6PD       0.493000
     74 H28         10.6270     0.8560     4.9020 ha         1 6PD       0.122500
     75 H29         14.5210     2.7340     4.7060 ha         1 6PD       0.122500
     76 H30         14.7660     1.9540     2.3600 ha         1 6PD       0.121500
     77 H31         11.4920     2.5330     8.0610 h2         1 6PD       0.049200
     78 H32         10.6330     1.5580     6.8870 h2         1 6PD       0.049200
     79 H34          9.2150     2.7770     5.1490 h1         1 6PD       0.037450
     80 H35         10.5660     3.7350     4.5050 h1         1 6PD       0.037450
     81 H36          9.4010     5.7940     4.8740 hc         1 6PD       0.049200
     82 H37          7.9700     4.7670     4.8620 hc         1 6PD       0.049200
     83 H38          9.3160     6.0900     7.2080 hc         1 6PD       0.049200
     84 H39          7.6970     5.3880     7.1720 hc         1 6PD       0.049200
     85 H40          9.6180     4.0970     8.5910 h1         1 6PD       0.037450
     86 H41          8.5760     3.1060     7.5350 h1         1 6PD       0.037450
     87 H42         14.3530     3.4720    -1.6960 h1         1 6PD       0.056700
     88 H43         13.0170     3.9230    -2.7610 h1         1 6PD       0.056700
     89 H44         13.9550     5.6540    -0.9640 hc         1 6PD       0.049200
     90 H45         12.2240     5.5780    -1.2730 hc         1 6PD       0.049200
     91 H46         13.6200     4.0020     0.9550 hc         1 6PD       0.050700
     92 H47         10.6140     4.5430     0.7000 hc         1 6PD       0.049200
     93 H48         11.4300     3.3140     1.6440 hc         1 6PD       0.049200
     94 H49         10.5720     3.2790    -1.1960 h1         1 6PD       0.056700
     95 H50         10.7980     1.9340    -0.0920 h1         1 6PD       0.056700
     96 H51         13.7660     6.4280     1.4180 hc         1 6PD       0.046700
     97 H52         12.0290     6.5970     1.2230 hc         1 6PD       0.046700
     98 H53         11.6300     5.1420     3.1820 h1         1 6PD       0.034200
     99 H54         13.3560     4.7880     3.3000 h1         1 6PD       0.034200
    100 H56         10.8090     7.4580     3.8890 h1         1 6PD       0.040200
    101 H57         11.9350     8.3500     2.8410 h1         1 6PD       0.040200
    102 H58         12.9100     9.5290     4.6960 hc         1 6PD       0.043450
    103 H59         11.3210     9.2440     5.4050 hc         1 6PD       0.043450
    104 H60         13.9280     8.0250     6.1740 hc         1 6PD       0.043450
    105 H61         12.3930     7.8240     7.0190 hc         1 6PD       0.043450
    106 H62         11.7320     5.9440     5.6210 h1         1 6PD       0.040200
    107 H63         13.4880     5.6790     5.7100 h1         1 6PD       0.040200
    108 N24         12.9930     0.6000     0.9640 nu         1 6PD      -0.991000
    109 C02         12.6740     1.2910    -1.8980 c          1 6PD       0.604700
    110 O31         12.4810     2.3420     6.2650 os         1 6PD      -0.357100
@<TRIPOS>BOND
     1     1    19 1   
     2     1    20 1   
     3     1    21 1   
     4     1    48 1   
     5     2    17 1   
     6     2    20 1   
     7     2    49 1   
     8     2    50 1   
     9     3    21 1   
    10     3    22 1   
    11     3    51 1   
    12     3    52 1   
    13     4     5 1   
    14     4    23 1   
    15     4    53 1   
    16     4    54 1   
    17     5     6 1   
    18     5    55 1   
    19     5    56 1   
    20     6    22 1   
    21     6    57 1   
    22     6    58 1   
    23     7    25 ar  
    24     7    26 ar  
    25     7    59 1   
    26     8    26 ar  
    27     8    27 ar  
    28     8   110 1   
    29     9   109 2   
    30    10    11 ar  
    31    10    15 ar  
    32    10   109 1   
    33    11    12 ar  
    34    11   108 1   
    35    12    13 ar  
    36    12    60 1   
    37    13    14 ar  
    38    13    16 1   
    39    14    15 ar  
    40    14    61 1   
    41    15    62 1   
    42    16    17 1   
    43    16    24 2   
    44    17    18 1   
    45    18    19 1   
    46    18    63 1   
    47    18    64 1   
    48    19    65 1   
    49    19    66 1   
    50    20    67 1   
    51    20    68 1   
    52    21    69 1   
    53    21    70 1   
    54    22    23 1   
    55    23    71 1   
    56    23    72 1   
    57    25    28 ar  
    58    25   108 1   
    59    26    74 1   
    60    27    28 ar  
    61    27    75 1   
    62    28    76 1   
    63    29    30 1   
    64    29    77 1   
    65    29    78 1   
    66    29   110 1   
    67    30    31 1   
    68    30    34 1   
    69    31    32 1   
    70    31    79 1   
    71    31    80 1   
    72    32    33 1   
    73    32    81 1   
    74    32    82 1   
    75    33    34 1   
    76    33    83 1   
    77    33    84 1   
    78    34    85 1   
    79    34    86 1   
    80    35    36 1   
    81    35    40 1   
    82    35   109 1   
    83    36    37 1   
    84    36    87 1   
    85    36    88 1   
    86    37    38 1   
    87    37    89 1   
    88    37    90 1   
    89    38    39 1   
    90    38    41 1   
    91    38    91 1   
    92    39    40 1   
    93    39    92 1   
    94    39    93 1   
    95    40    94 1   
    96    40    95 1   
    97    41    42 1   
    98    41    96 1   
    99    41    97 1   
   100    42    43 1   
   101    42    98 1   
   102    42    99 1   
   103    43    44 1   
   104    43    47 1   
   105    44    45 1   
   106    44   100 1   
   107    44   101 1   
   108    45    46 1   
   109    45   102 1   
   110    45   103 1   
   111    46    47 1   
   112    46   104 1   
   113    46   105 1   
   114    47   106 1   
   115    47   107 1   
   116    73   108 1   
@<TRIPOS>SUBSTRUCTURE
     1 6PD         1 TEMP              0 ****  ****    0 ROOT
