@<TRIPOS>MOLECULE
6PE
   60    59     1     0     0
SMALL
No Charge or Current Charge


@<TRIPOS>ATOM
      1 O1           1.9420     4.5170    -2.2840 o          1 6PE      -0.830000
      2 O2           1.7390     2.5220    -3.7150 o          1 6PE      -0.830000
      3 P1           1.6250     3.0590    -2.3280 p5         1 6PE       1.387800
      4 O3           0.1800     2.7370    -1.6790 os         1 6PE      -0.566400
      5 C1          -0.9320     2.3000    -2.4830 c3         1 6PE       0.216600
      6 C2          -1.2160     0.7670    -2.3430 c3         1 6PE       0.152300
      7 C3          -0.0550    -0.1890    -2.7240 c3         1 6PE       0.176600
      8 O4           0.8870    -0.2810    -1.6370 os         1 6PE      -0.414100
      9 C4           2.0010    -1.0540    -1.8160 c          1 6PE       0.628100
     10 O5           2.2480    -1.6910    -2.8320 o          1 6PE      -0.514000
     11 C5           2.8380    -1.1470    -0.5390 c3         1 6PE      -0.142400
     12 C6           2.4150    -2.3580     0.3230 c3         1 6PE      -0.060400
     13 C7           3.2170    -2.4730     1.6380 c3         1 6PE      -0.083400
     14 C8           2.7920    -3.6800     2.5020 c3         1 6PE      -0.073400
     15 C9           3.5900    -3.7940     3.8140 c3         1 6PE      -0.087100
     16 O6          -1.6540     0.4490    -0.9960 os         1 6PE      -0.417100
     17 C10         -2.8940     0.8520    -0.5750 c          1 6PE       0.598100
     18 O7          -3.7380     1.3720    -1.2930 o          1 6PE      -0.515000
     19 C11         -3.1620     0.4200     0.8670 c3         1 6PE      -0.141400
     20 C12         -3.7740    -1.0000     0.9260 c3         1 6PE      -0.067400
     21 C13         -4.0370    -1.4840     2.3680 c3         1 6PE      -0.077400
     22 C14         -4.6450    -2.9030     2.4270 c3         1 6PE      -0.075400
     23 C15         -4.9060    -3.3880     3.8660 c3         1 6PE      -0.088100
     24 O8           2.5690     2.2040    -1.3390 os         1 6PE      -0.594400
     25 C16          3.0430     2.7300    -0.0790 c3         1 6PE       0.215600
     26 C17          1.8700     3.1200     0.8800 c3         1 6PE       0.150800
     27 N1           0.9180     2.0160     1.1420 n8         1 6PE      -1.001200
     28 H1          -0.7670     2.5260    -3.5440 h1         1 6PE       0.033200
     29 H2          -1.8290     2.8600    -2.1940 h1         1 6PE       0.033200
     30 H3          -2.0260     0.5390    -3.0480 h1         1 6PE       0.050700
     31 H4           0.4290     0.1730    -3.6400 h1         1 6PE       0.053200
     32 H5          -0.4760    -1.1800    -2.9390 h1         1 6PE       0.053200
     33 H6           2.6730    -0.2440     0.0580 hc         1 6PE       0.085700
     34 H7           3.8950    -1.2440    -0.8100 hc         1 6PE       0.085700
     35 H8           2.5430    -3.2790    -0.2600 hc         1 6PE       0.042700
     36 H9           1.3460    -2.2750     0.5600 hc         1 6PE       0.042700
     37 H10          3.0890    -1.5510     2.2200 hc         1 6PE       0.043700
     38 H11          4.2850    -2.5560     1.4030 hc         1 6PE       0.043700
     39 H12          2.9210    -4.6040     1.9240 hc         1 6PE       0.033200
     40 H13          1.7240    -3.5980     2.7410 hc         1 6PE       0.033200
     41 H14          4.6610    -3.9130     3.6080 hc         1 6PE       0.025367
     42 H15          3.4530    -2.8980     4.4310 hc         1 6PE       0.025367
     43 H16          3.2540    -4.6640     4.3920 hc         1 6PE       0.025367
     44 H17         -2.2100     0.3910     1.4110 hc         1 6PE       0.072200
     45 H18         -3.8540     1.1300     1.3340 hc         1 6PE       0.072200
     46 H19         -4.7160    -1.0100     0.3630 hc         1 6PE       0.049700
     47 H20         -3.0960    -1.7050     0.4270 hc         1 6PE       0.049700
     48 H21         -3.0950    -1.4730     2.9300 hc         1 6PE       0.036200
     49 H22         -4.7160    -0.7810     2.8670 hc         1 6PE       0.036200
     50 H23         -5.5890    -2.9180     1.8690 hc         1 6PE       0.037200
     51 H24         -3.9680    -3.6100     1.9310 hc         1 6PE       0.037200
     52 H25         -3.9730    -3.4180     4.4410 hc         1 6PE       0.028033
     53 H26         -5.6090    -2.7200     4.3790 hc         1 6PE       0.028033
     54 H27         -5.3360    -4.3970     3.8570 hc         1 6PE       0.028033
     55 H28          3.6700     1.9810     0.4220 h1         1 6PE       0.030200
     56 H29          3.6710     3.6150    -0.2470 h1         1 6PE       0.030200
     57 H30          2.2860     3.4480     1.8420 h1         1 6PE       0.015700
     58 H31          1.3120     3.9640     0.4570 h1         1 6PE       0.015700
     59 H32          0.0940     2.3960     1.6180 hn         1 6PE       0.388500
     60 H33          0.5530     1.7220     0.2230 hn         1 6PE       0.388500
@<TRIPOS>BOND
     1     1     3 1   
     2     2     3 1   
     3     3     4 1   
     4     3    24 1   
     5     4     5 1   
     6     5     6 1   
     7     5    28 1   
     8     5    29 1   
     9     6     7 1   
    10     6    16 1   
    11     6    30 1   
    12     7     8 1   
    13     7    31 1   
    14     7    32 1   
    15     8     9 1   
    16     9    10 2   
    17     9    11 1   
    18    11    12 1   
    19    11    33 1   
    20    11    34 1   
    21    12    13 1   
    22    12    35 1   
    23    12    36 1   
    24    13    14 1   
    25    13    37 1   
    26    13    38 1   
    27    14    15 1   
    28    14    39 1   
    29    14    40 1   
    30    15    41 1   
    31    15    42 1   
    32    15    43 1   
    33    16    17 1   
    34    17    18 2   
    35    17    19 1   
    36    19    20 1   
    37    19    44 1   
    38    19    45 1   
    39    20    21 1   
    40    20    46 1   
    41    20    47 1   
    42    21    22 1   
    43    21    48 1   
    44    21    49 1   
    45    22    23 1   
    46    22    50 1   
    47    22    51 1   
    48    23    52 1   
    49    23    53 1   
    50    23    54 1   
    51    24    25 1   
    52    25    26 1   
    53    25    55 1   
    54    25    56 1   
    55    26    27 1   
    56    26    57 1   
    57    26    58 1   
    58    27    59 1   
    59    27    60 1   
@<TRIPOS>SUBSTRUCTURE
     1 6PE         1 TEMP              0 ****  ****    0 ROOT
