@<TRIPOS>MOLECULE
6PE
   60    59     1     0     0
SMALL
bcc


@<TRIPOS>ATOM
      1 O1           1.0030     3.7200    -2.0470 o          1 6PE      -0.830000
      2 O2           2.0450     1.3710    -2.2980 o          1 6PE      -0.830000
      3 P1           1.1990     2.3300    -1.5150 p5         1 6PE       1.387800
      4 O3          -0.2570     1.6610    -1.1530 os         1 6PE      -0.543200
      5 C1          -1.0990     1.3040    -2.2250 c3         1 6PE       0.193400
      6 C2          -1.4160    -0.1810    -2.2570 c3         1 6PE       0.129100
      7 C3          -0.2220    -1.0910    -2.4440 c3         1 6PE       0.153400
      8 O4           0.5680    -1.0830    -1.2640 os         1 6PE      -0.390900
      9 C4           1.8280    -1.4860    -1.3510 c          1 6PE       0.677100
     10 O5           2.2990    -1.9870    -2.3440 o          1 6PE      -0.563000
     11 C5           2.5710    -1.2530    -0.0680 c3         1 6PE      -0.142400
     12 C6           3.7710    -2.1700     0.1250 c3         1 6PE      -0.060400
     13 C7           4.4790    -1.8990     1.4460 c3         1 6PE      -0.083400
     14 C8           5.6830    -2.8040     1.6740 c3         1 6PE      -0.073400
     15 C9           6.3920    -2.5180     2.9900 c3         1 6PE      -0.087100
     16 O6          -2.0840    -0.5960    -1.0600 os         1 6PE      -0.393900
     17 C10         -3.4090    -0.4860    -0.9850 c          1 6PE       0.647100
     18 O7          -4.0940    -0.0440    -1.8730 o          1 6PE      -0.564000
     19 C11         -3.9230    -0.9810     0.3400 c3         1 6PE      -0.141400
     20 C12         -5.4360    -0.9180     0.4670 c3         1 6PE      -0.067400
     21 C13         -5.9180    -1.4230     1.8220 c3         1 6PE      -0.077400
     22 C14         -7.4330    -1.3680     1.9680 c3         1 6PE      -0.075400
     23 C15         -7.9140    -1.8740     3.3200 c3         1 6PE      -0.088100
     24 O8           1.6730     2.3930     0.0520 os         1 6PE      -0.571200
     25 C16          2.8260     3.1660     0.3510 c3         1 6PE       0.192400
     26 C17          3.1740     2.9900     1.8110 c3         1 6PE       0.150800
     27 N1           3.5770     1.6250     2.1020 n8         1 6PE      -0.890800
     28 H1          -0.6760     1.5580    -3.2040 h1         1 6PE       0.033200
     29 H2          -2.0320     1.8680    -2.1430 h1         1 6PE       0.033200
     30 H3          -2.0630    -0.3410    -3.1250 h1         1 6PE       0.050700
     31 H4           0.3470    -0.7440    -3.3070 h1         1 6PE       0.053200
     32 H5          -0.5620    -2.1090    -2.6520 h1         1 6PE       0.053200
     33 H6           1.8810    -1.3410     0.7750 hc         1 6PE       0.085700
     34 H7           2.8930    -0.2070    -0.0820 hc         1 6PE       0.085700
     35 H8           4.4740    -2.0400    -0.7010 hc         1 6PE       0.042700
     36 H9           3.4470    -3.2150     0.0940 hc         1 6PE       0.042700
     37 H10          3.7710    -2.0280     2.2720 hc         1 6PE       0.043700
     38 H11          4.7900    -0.8500     1.4840 hc         1 6PE       0.043700
     39 H12          6.3870    -2.6870     0.8440 hc         1 6PE       0.033200
     40 H13          5.3590    -3.8490     1.6510 hc         1 6PE       0.033200
     41 H14          6.7670    -1.4930     3.0210 hc         1 6PE       0.025367
     42 H15          5.7160    -2.6450     3.8380 hc         1 6PE       0.025367
     43 H16          7.2420    -3.1840     3.1430 hc         1 6PE       0.025367
     44 H17         -3.5660    -2.0060     0.4850 hc         1 6PE       0.072200
     45 H18         -3.4460    -0.3930     1.1300 hc         1 6PE       0.072200
     46 H19         -5.7760     0.1110     0.3220 hc         1 6PE       0.049700
     47 H20         -5.9000    -1.5110    -0.3260 hc         1 6PE       0.049700
     48 H21         -5.5760    -2.4530     1.9720 hc         1 6PE       0.036200
     49 H22         -5.4550    -0.8320     2.6190 hc         1 6PE       0.036200
     50 H23         -7.7740    -0.3390     1.8180 hc         1 6PE       0.037200
     51 H24         -7.8940    -1.9580     1.1700 hc         1 6PE       0.037200
     52 H25         -7.6350    -2.9180     3.4730 hc         1 6PE       0.028033
     53 H26         -7.4780    -1.2950     4.1360 hc         1 6PE       0.028033
     54 H27         -8.9990    -1.8080     3.4110 hc         1 6PE       0.028033
     55 H28          3.6790     2.8490    -0.2610 h1         1 6PE       0.030200
     56 H29          2.6440     4.2260     0.1460 h1         1 6PE       0.030200
     57 H30          4.0160     3.6540     2.0230 h1         1 6PE       0.015700
     58 H31          2.3360     3.3500     2.4250 h1         1 6PE       0.015700
     59 H32          3.8770     1.5550     3.0650 hn         1 6PE       0.333300
     60 H33          2.7800     1.0090     2.0160 hn         1 6PE       0.333300
@<TRIPOS>BOND
     1     1     3 1   
     2     2     3 1   
     3     3     4 1   
     4     3    24 1   
     5     4     5 1   
     6     5     6 1   
     7     5    28 1   
     8     5    29 1   
     9     6     7 1   
    10     6    16 1   
    11     6    30 1   
    12     7     8 1   
    13     7    31 1   
    14     7    32 1   
    15     8     9 1   
    16     9    10 2   
    17     9    11 1   
    18    11    12 1   
    19    11    33 1   
    20    11    34 1   
    21    12    13 1   
    22    12    35 1   
    23    12    36 1   
    24    13    14 1   
    25    13    37 1   
    26    13    38 1   
    27    14    15 1   
    28    14    39 1   
    29    14    40 1   
    30    15    41 1   
    31    15    42 1   
    32    15    43 1   
    33    16    17 1   
    34    17    18 2   
    35    17    19 1   
    36    19    20 1   
    37    19    44 1   
    38    19    45 1   
    39    20    21 1   
    40    20    46 1   
    41    20    47 1   
    42    21    22 1   
    43    21    48 1   
    44    21    49 1   
    45    22    23 1   
    46    22    50 1   
    47    22    51 1   
    48    23    52 1   
    49    23    53 1   
    50    23    54 1   
    51    24    25 1   
    52    25    26 1   
    53    25    55 1   
    54    25    56 1   
    55    26    27 1   
    56    26    57 1   
    57    26    58 1   
    58    27    59 1   
    59    27    60 1   
@<TRIPOS>SUBSTRUCTURE
     1 6PE         1 TEMP              0 ****  ****    0 ROOT
