@<TRIPOS>MOLECULE
6PF
   56    59     1     0     0
SMALL
No Charge or Current Charge


@<TRIPOS>ATOM
      1 N1           5.3150     0.9220    -0.5170 nu         1 6PF      -0.862100
      2 N3          -5.8940     0.8910     0.0100 n3         1 6PF      -0.693600
      3 C4           3.0610     0.0880     0.0670 ca         1 6PF      -0.006000
      4 C5           4.1270     0.9910     0.2580 ca         1 6PF       0.154000
      5 C6           4.3570     1.5050    -3.0010 c3         1 6PF      -0.376100
      6 C7           0.7420    -0.7550     0.6780 cp         1 6PF      -0.001000
      7 C8           0.9670    -2.1160     0.3320 ca         1 6PF      -0.081000
      8 C10         -0.1990    -4.3590    -0.1690 cc         1 6PF      -0.102900
      9 C13         -1.7060    -1.1910     0.6870 ca         1 6PF       0.015000
     10 C15         -5.2160     0.3390     1.2290 c3         1 6PF       0.088800
     11 C17         -8.0580     1.5780    -1.1010 c6         1 6PF       0.154100
     12 C20         -0.6050    -0.3120     0.8490 ca         1 6PF      -0.145000
     13 O4          -3.0390     1.3540     1.6590 o          1 6PF      -0.548100
     14 C14         -3.6620     0.3700     1.2690 c          1 6PF       0.601100
     15 C19         -5.5290     0.1830    -1.2590 c6         1 6PF       0.125300
     16 C18         -6.2490     0.8040    -2.4930 c6         1 6PF       0.154100
     17 O5          -7.6810     0.8280    -2.2810 os         1 6PF      -0.450000
     18 C16         -7.3800     0.9720     0.1630 c6         1 6PF       0.125300
     19 N2          -3.0660    -0.8080     0.8360 ns         1 6PF      -0.149000
     20 C12         -1.4130    -2.5180     0.3400 ca         1 6PF      -0.135000
     21 C11         -2.2860    -3.6460     0.1020 cc         1 6PF      -0.117900
     22 O3          -1.5250    -4.7640    -0.2080 os         1 6PF      -0.118200
     23 C9          -0.1370    -2.9590     0.1720 ca         1 6PF      -0.094000
     24 C3           1.8900     0.1900     0.8570 cp         1 6PF      -0.112000
     25 C2           1.8520     1.2200     1.8290 ca         1 6PF       0.398900
     26 N            2.8580     2.0960     2.0430 nb         1 6PF      -0.744000
     27 S            5.5130     0.4880    -2.1080 s6         1 6PF       1.188100
     28 O1           6.8730     0.9070    -2.4460 o          1 6PF      -0.529000
     29 O2           5.1160    -0.9170    -2.2140 o          1 6PF      -0.529000
     30 C1           3.9680     1.9830     1.2780 ca         1 6PF       0.563300
     31 O            5.0050     2.8770     1.4760 os         1 6PF      -0.480300
     32 C            4.9280     3.9060     2.4840 c3         1 6PF       0.161900
     33 H1           6.0060     1.6470    -0.3540 hn         1 6PF       0.498000
     34 H3           3.1280    -0.6860    -0.6890 ha         1 6PF       0.149000
     35 H4           4.6050     2.5510    -2.7940 h1         1 6PF       0.103033
     36 H5           4.4720     1.2730    -4.0650 h1         1 6PF       0.103033
     37 H6           3.3510     1.2560    -2.6490 h1         1 6PF       0.103033
     38 H7           1.9730    -2.5070     0.2040 ha         1 6PF       0.123000
     39 H8           0.5500    -5.1130    -0.3880 h4         1 6PF       0.251000
     40 H9          -5.5510     0.8960     2.1140 h1         1 6PF       0.048200
     41 H10         -5.5270    -0.7030     1.3840 h1         1 6PF       0.048200
     42 H11         -7.7530     2.6270    -1.2240 h1         1 6PF       0.055450
     43 H12         -9.1510     1.5500    -0.9900 h1         1 6PF       0.055450
     44 H13         -0.7750     0.7320     1.0890 ha         1 6PF       0.147000
     45 H14         -4.4440     0.2320    -1.4310 h1         1 6PF       0.042950
     46 H15         -5.7990    -0.8820    -1.1940 h1         1 6PF       0.042950
     47 H16         -5.8890     1.8300    -2.6600 h1         1 6PF       0.055450
     48 H17         -6.0270     0.2130    -3.3930 h1         1 6PF       0.055450
     49 H18         -7.8000    -0.0290     0.3420 h1         1 6PF       0.042950
     50 H19         -7.6410     1.5910     1.0340 h1         1 6PF       0.042950
     51 H20         -3.7220    -1.5280     0.5660 hn         1 6PF       0.148000
     52 H21         -3.3630    -3.7850     0.1210 h4         1 6PF       0.240000
     53 H22          0.9820     1.3360     2.4750 h4         1 6PF       0.036100
     54 H23          4.0810     4.5790     2.2940 h1         1 6PF       0.051367
     55 H24          4.8080     3.4680     3.4840 h1         1 6PF       0.051367
     56 H25          5.8450     4.5080     2.4860 h1         1 6PF       0.051367
@<TRIPOS>BOND
     1     1     4 1   
     2     1    27 1   
     3     1    33 1   
     4     2    10 1   
     5     2    15 1   
     6     2    18 1   
     7     3     4 ar  
     8     3    24 ar  
     9     3    34 1   
    10     4    30 ar  
    11     5    27 1   
    12     5    35 1   
    13     5    36 1   
    14     5    37 1   
    15     6     7 ar  
    16     6    12 ar  
    17     6    24 1   
    18     7    23 ar  
    19     7    38 1   
    20     8    22 1   
    21     8    23 2   
    22     8    39 1   
    23     9    12 ar  
    24     9    19 1   
    25     9    20 ar  
    26    10    14 1   
    27    10    40 1   
    28    10    41 1   
    29    11    17 1   
    30    11    18 1   
    31    11    42 1   
    32    11    43 1   
    33    12    44 1   
    34    13    14 2   
    35    14    19 1   
    36    15    16 1   
    37    15    45 1   
    38    15    46 1   
    39    16    17 1   
    40    16    47 1   
    41    16    48 1   
    42    18    49 1   
    43    18    50 1   
    44    19    51 1   
    45    20    21 2   
    46    20    23 ar  
    47    21    22 1   
    48    21    52 1   
    49    24    25 ar  
    50    25    26 ar  
    51    25    53 1   
    52    26    30 ar  
    53    27    28 2   
    54    27    29 2   
    55    30    31 1   
    56    31    32 1   
    57    32    54 1   
    58    32    55 1   
    59    32    56 1   
@<TRIPOS>SUBSTRUCTURE
     1 6PF         1 TEMP              0 ****  ****    0 ROOT
