@<TRIPOS>MOLECULE
6PF
   56    59     1     0     0
SMALL
bcc


@<TRIPOS>ATOM
      1 N1           5.1610     0.5350    -0.5180 nu         1 6PF      -0.668500
      2 N3          -5.7730     0.8130    -0.1600 n3         1 6PF      -0.693600
      3 C4           2.9790    -0.3040     0.1300 ca         1 6PF      -0.024000
      4 C5           3.9240     0.6990     0.1430 ca         1 6PF      -0.049700
      5 C6           4.9640     2.4950    -2.4540 c3         1 6PF      -0.265300
      6 C7           0.7250    -1.1840     0.7910 cp         1 6PF      -0.001000
      7 C8           1.0880    -2.4910     0.9230 ca         1 6PF      -0.099000
      8 C10          0.0600    -4.8340     1.0750 cc         1 6PF      -0.052900
      9 C13         -1.6690    -1.7080     0.6790 ca         1 6PF       0.107600
     10 C15         -5.1630    -0.3340     0.4530 c3         1 6PF       0.088800
     11 C17         -7.7950     2.1160    -0.5120 c6         1 6PF       0.130900
     12 C20         -0.6560    -0.7940     0.6650 ca         1 6PF      -0.163000
     13 O4          -3.0690     0.8480     0.5710 o          1 6PF      -0.548100
     14 C14         -3.6480    -0.2160     0.5110 c          1 6PF       0.668100
     15 C19         -5.5430     0.8570    -1.5940 c6         1 6PF       0.125300
     16 C18         -6.1840     2.0990    -2.1830 c6         1 6PF       0.130900
     17 O5          -7.5650     2.1530    -1.9030 os         1 6PF      -0.403600
     18 C16         -7.1980     0.8730     0.1180 c6         1 6PF       0.125300
     19 N2          -3.0240    -1.4260     0.5350 ns         1 6PF      -0.475100
     20 C12         -1.3190    -3.0890     0.8310 ca         1 6PF      -0.135000
     21 C11         -2.0420    -4.2470     0.9020 cc         1 6PF      -0.067900
     22 O3          -1.2040    -5.2820     1.0480 os         1 6PF      -0.118200
     23 C9           0.0610    -3.4730     0.9440 ca         1 6PF      -0.094000
     24 C3           1.7510    -0.1250     0.7710 cp         1 6PF      -0.177300
     25 C2           1.5580     1.0900     1.4120 ca         1 6PF       0.464200
     26 N            2.4650     2.0610     1.4500 nb         1 6PF      -0.744000
     27 S            5.2370     0.7630    -2.1670 s6         1 6PF       1.218900
     28 O1           6.5990     0.4310    -2.5460 o          1 6PF      -0.599800
     29 O2           4.1250     0.0290    -2.7470 o          1 6PF      -0.599800
     30 C1           3.6100     1.8850     0.8330 ca         1 6PF       0.628600
     31 O            4.5370     2.8380     0.8440 os         1 6PF      -0.457100
     32 C            4.2530     4.0490     1.5340 c3         1 6PF       0.138700
     33 H1           5.9670     0.9270    -0.0410 hn         1 6PF       0.442800
     34 H3           3.2000    -1.2280    -0.3890 ha         1 6PF       0.167000
     35 H4           5.7460     3.0690    -1.9640 h1         1 6PF       0.103033
     36 H5           4.9970     2.6590    -3.5300 h1         1 6PF       0.103033
     37 H6           3.9850     2.7740    -2.0700 h1         1 6PF       0.103033
     38 H7           2.1240    -2.7830     1.0380 ha         1 6PF       0.141000
     39 H8           0.8410    -5.5660     1.1930 h4         1 6PF       0.201000
     40 H9          -5.5060    -0.4070     1.4910 h1         1 6PF       0.048200
     41 H10         -5.4570    -1.2810    -0.0310 h1         1 6PF       0.048200
     42 H11         -7.3700     3.0070    -0.0290 h1         1 6PF       0.055450
     43 H12         -8.8750     2.1310    -0.3570 h1         1 6PF       0.055450
     44 H13         -0.8740     0.2510     0.5220 ha         1 6PF       0.165000
     45 H14         -4.4720     0.8930    -1.8010 h1         1 6PF       0.042950
     46 H15         -5.9420    -0.0420    -2.0950 h1         1 6PF       0.042950
     47 H16         -5.6770     2.9900    -1.7870 h1         1 6PF       0.055450
     48 H17         -6.0690     2.0990    -3.2680 h1         1 6PF       0.055450
     49 H18         -7.7280    -0.0200    -0.2570 h1         1 6PF       0.042950
     50 H19         -7.3550     0.9130     1.1990 h1         1 6PF       0.042950
     51 H20         -3.6300    -2.2270     0.4510 hn         1 6PF       0.314500
     52 H21         -3.0950    -4.4780     0.8710 h4         1 6PF       0.190000
     53 H22          0.6330     1.2900     1.9420 h4         1 6PF       0.036100
     54 H23          3.3820     4.5540     1.1170 h1         1 6PF       0.051367
     55 H24          4.0850     3.8750     2.5970 h1         1 6PF       0.051367
     56 H25          5.1310     4.6760     1.4040 h1         1 6PF       0.051367
@<TRIPOS>BOND
     1     1     4 1   
     2     1    27 1   
     3     1    33 1   
     4     2    10 1   
     5     2    15 1   
     6     2    18 1   
     7     3     4 ar  
     8     3    24 ar  
     9     3    34 1   
    10     4    30 ar  
    11     5    27 1   
    12     5    35 1   
    13     5    36 1   
    14     5    37 1   
    15     6     7 ar  
    16     6    12 ar  
    17     6    24 1   
    18     7    23 ar  
    19     7    38 1   
    20     8    22 1   
    21     8    23 2   
    22     8    39 1   
    23     9    12 ar  
    24     9    19 1   
    25     9    20 ar  
    26    10    14 1   
    27    10    40 1   
    28    10    41 1   
    29    11    17 1   
    30    11    18 1   
    31    11    42 1   
    32    11    43 1   
    33    12    44 1   
    34    13    14 2   
    35    14    19 1   
    36    15    16 1   
    37    15    45 1   
    38    15    46 1   
    39    16    17 1   
    40    16    47 1   
    41    16    48 1   
    42    18    49 1   
    43    18    50 1   
    44    19    51 1   
    45    20    21 2   
    46    20    23 ar  
    47    21    22 1   
    48    21    52 1   
    49    24    25 ar  
    50    25    26 ar  
    51    25    53 1   
    52    26    30 ar  
    53    27    28 2   
    54    27    29 2   
    55    30    31 1   
    56    31    32 1   
    57    32    54 1   
    58    32    55 1   
    59    32    56 1   
@<TRIPOS>SUBSTRUCTURE
     1 6PF         1 TEMP              0 ****  ****    0 ROOT
