@<TRIPOS>MOLECULE
6PK
   69    71     1     0     0
SMALL
abcg2


@<TRIPOS>ATOM
      1 C1           7.5430     4.5090    -0.1020 ca         1 6PK      -0.099000
      2 C2           6.3840     4.6200     0.6550 ca         1 6PK      -0.108500
      3 C3           5.5220     3.5390     0.7690 ca         1 6PK      -0.085500
      4 C12          1.6830    -0.1390     0.0790 c3         1 6PK       0.161500
      5 C13          0.3560    -0.5720    -0.5610 c          1 6PK       0.613100
      6 C16         -2.0250    -0.8360    -0.1610 c3         1 6PK       0.020000
      7 C20         -5.4020    -0.6530     1.5370 c3         1 6PK       0.143300
      8 C21         -6.3570     0.3710     0.9730 ca         1 6PK      -0.100300
      9 C22         -5.8980     1.5170     0.3330 ca         1 6PK      -0.109000
     10 C24         -8.1640     2.2800    -0.0200 ca         1 6PK      -0.139900
     11 C27         -9.1420     3.2780    -0.5320 ce         1 6PK       0.658800
     12 N29         -8.6830     4.0790    -1.5400 nv         1 6PK      -1.074200
     13 C30          2.0640    -1.1220     1.1790 c3         1 6PK       0.135600
     14 C32          2.4450    -3.4230     1.4870 c3         1 6PK       0.208900
     15 C33          2.3510    -4.7450     0.7770 ca         1 6PK      -0.094300
     16 C34          1.4950    -4.9320    -0.3050 ca         1 6PK      -0.094000
     17 C35          1.3990    -6.1750    -0.9160 ca         1 6PK      -0.111500
     18 C4           5.8160     2.3350     0.1350 ca         1 6PK      -0.080300
     19 S8           3.6820     1.2430    -1.1120 s6         1 6PK       1.203100
     20 N11          2.6980    -0.0530    -0.9480 n7         1 6PK      -0.894300
     21 O31          2.1490    -2.3870     0.5870 os         1 6PK      -0.452000
     22 C38          3.1060    -5.8230     1.2330 ca         1 6PK      -0.094000
     23 C37          3.0050    -7.0670     0.6260 ca         1 6PK      -0.111500
     24 C36          2.1490    -7.2480    -0.4530 ca         1 6PK      -0.104000
     25 N15         -0.7070    -0.4310     0.2400 ns         1 6PK      -0.506900
     26 C17         -3.0220    -0.4840     0.9300 c          1 6PK       0.590100
     27 N19         -4.2680    -0.9080     0.6810 ns         1 6PK      -0.499900
     28 C26         -7.7300     0.1940     1.1130 ca         1 6PK      -0.109000
     29 C25         -8.6230     1.1380     0.6310 ca         1 6PK      -0.076500
     30 N28        -10.2910     3.3500     0.0220 n2         1 6PK      -0.825100
     31 C23         -6.7880     2.4580    -0.1590 ca         1 6PK      -0.076500
     32 O18         -2.6930     0.1380     1.9290 o          1 6PK      -0.609100
     33 O14          0.2910    -1.0260    -1.6880 o          1 6PK      -0.570100
     34 O10          2.8710     2.4360    -0.9220 o          1 6PK      -0.522000
     35 O9           4.4070     1.0520    -2.3580 o          1 6PK      -0.522000
     36 C5           6.9780     2.2300    -0.6240 ca         1 6PK      -0.085500
     37 C6           7.8400     3.3110    -0.7390 ca         1 6PK      -0.108500
     38 H1           8.2160     5.3520    -0.1920 ha         1 6PK       0.114000
     39 H2           6.1510     5.5500     1.1570 ha         1 6PK       0.116500
     40 H3           4.6210     3.6280     1.3630 ha         1 6PK       0.118500
     41 H4           5.3850     0.2170     0.1570 h1         1 6PK       0.090700
     42 H5           4.3020     1.1940     1.1660 h1         1 6PK       0.090700
     43 H6           1.5520     0.8450     0.5350 h1         1 6PK       0.090700
     44 H7          -2.3280    -0.3330    -1.0850 h1         1 6PK       0.069200
     45 H8          -2.0670    -1.9100    -0.3600 h1         1 6PK       0.069200
     46 H9          -5.0290    -0.3180     2.5050 h1         1 6PK       0.069200
     47 H10         -5.9310    -1.5910     1.7140 h1         1 6PK       0.069200
     48 H11         -4.8360     1.6900     0.2140 ha         1 6PK       0.117000
     49 H12         -7.9850     3.7070    -2.1640 hn         1 6PK       0.460500
     50 H13         -9.3570     4.6710    -2.0000 hn         1 6PK       0.460500
     51 H14          3.0210    -0.8220     1.6280 h1         1 6PK       0.033700
     52 H15          1.3150    -1.1000     1.9820 h1         1 6PK       0.033700
     53 H16          1.7370    -3.4090     2.3290 h1         1 6PK       0.031200
     54 H17          3.4460    -3.2970     1.9190 h1         1 6PK       0.031200
     55 H18          0.9050    -4.1070    -0.6820 ha         1 6PK       0.120000
     56 H19          0.7340    -6.3040    -1.7610 ha         1 6PK       0.114000
     57 H20          3.0860    -0.9270    -1.2800 hn         1 6PK       0.520000
     58 H21          3.7850    -5.6890     2.0670 ha         1 6PK       0.120000
     59 H22          3.6020    -7.8930     0.9910 ha         1 6PK       0.114000
     60 H23          2.0720    -8.2150    -0.9320 ha         1 6PK       0.114000
     61 H24         -0.6210     0.0090     1.1450 hn         1 6PK       0.340500
     62 H25         -4.4440    -1.4070    -0.1780 hn         1 6PK       0.319500
     63 H26         -8.1100    -0.6980     1.5970 ha         1 6PK       0.117000
     64 H27         -9.6870     0.9820     0.7440 ha         1 6PK       0.129500
     65 H28        -10.8760     4.0440    -0.4360 hn         1 6PK       0.372400
     66 H29         -6.3950     3.3470    -0.6360 ha         1 6PK       0.129500
     67 H30          7.2150     1.2960    -1.1190 ha         1 6PK       0.118500
     68 H31          8.7440     3.2180    -1.3270 ha         1 6PK       0.116500
     69 C7           4.8740     1.1780     0.2370 c3         1 6PK      -0.280100
@<TRIPOS>BOND
     1     1     2 ar  
     2     1    37 ar  
     3     1    38 1   
     4     2     3 ar  
     5     2    39 1   
     6     3    18 ar  
     7     3    40 1   
     8     4     5 1   
     9     4    13 1   
    10     4    20 1   
    11     4    43 1   
    12     5    25 1   
    13     5    33 2   
    14     6    25 1   
    15     6    26 1   
    16     6    44 1   
    17     6    45 1   
    18     7     8 1   
    19     7    27 1   
    20     7    46 1   
    21     7    47 1   
    22     8     9 ar  
    23     8    28 ar  
    24     9    31 ar  
    25     9    48 1   
    26    10    11 1   
    27    10    29 ar  
    28    10    31 ar  
    29    11    12 1   
    30    11    30 2   
    31    12    49 1   
    32    12    50 1   
    33    13    21 1   
    34    13    51 1   
    35    13    52 1   
    36    14    15 1   
    37    14    21 1   
    38    14    53 1   
    39    14    54 1   
    40    15    16 ar  
    41    15    22 ar  
    42    16    17 ar  
    43    16    55 1   
    44    17    24 ar  
    45    17    56 1   
    46    18    36 ar  
    47    18    69 1   
    48    19    20 1   
    49    19    34 2   
    50    19    35 2   
    51    19    69 1   
    52    20    57 1   
    53    22    23 ar  
    54    22    58 1   
    55    23    24 ar  
    56    23    59 1   
    57    24    60 1   
    58    25    61 1   
    59    26    27 1   
    60    26    32 2   
    61    27    62 1   
    62    28    29 ar  
    63    28    63 1   
    64    29    64 1   
    65    30    65 1   
    66    31    66 1   
    67    36    37 ar  
    68    36    67 1   
    69    37    68 1   
    70    41    69 1   
    71    42    69 1   
@<TRIPOS>SUBSTRUCTURE
     1 6PK         1 TEMP              0 ****  ****    0 ROOT
