@<TRIPOS>MOLECULE
6PK
   69    71     1     0     0
SMALL
No Charge or Current Charge


@<TRIPOS>ATOM
      1 C1           7.9430     2.0330    -0.6280 ca         1 6PK      -0.099000
      2 C2           7.2010     2.2280     0.5490 ca         1 6PK      -0.108500
      3 C3           5.9700     1.5700     0.7220 ca         1 6PK      -0.085500
      4 C12          0.7420    -0.4220     0.8530 c3         1 6PK       0.161500
      5 C13         -0.6430    -1.1240     0.6410 c          1 6PK       0.613100
      6 C16         -3.1340    -0.9480     1.0780 c3         1 6PK       0.020000
      7 C20         -6.5680     0.3560     2.2970 c3         1 6PK       0.143300
      8 C21         -7.2490     1.2180     1.2430 ca         1 6PK      -0.100300
      9 C22         -6.7890     2.5220     0.9880 ca         1 6PK      -0.109000
     10 C24         -8.5060     2.8250    -0.7380 ca         1 6PK      -0.139900
     11 C27         -9.2060     3.6770    -1.7570 ce         1 6PK       0.658800
     12 N29         -8.5180     4.6960    -2.3180 nv         1 6PK      -1.074200
     13 C30          1.6280    -1.3080     1.7700 c3         1 6PK       0.135600
     14 C32          3.2020    -3.1480     1.6550 c3         1 6PK       0.208900
     15 C33          3.9890    -3.9510     0.6300 ca         1 6PK      -0.094300
     16 C34          3.4510    -5.1350     0.0890 ca         1 6PK      -0.094000
     17 C35          4.1760    -5.8730    -0.8640 ca         1 6PK      -0.111500
     18 C4           5.4760     0.7160    -0.2820 ca         1 6PK      -0.080300
     19 S8           2.6990     0.9810    -0.5330 s6         1 6PK       1.203100
     20 N11          1.4240    -0.0980    -0.4510 n7         1 6PK      -0.894300
     21 O31          2.3040    -2.2800     0.9470 os         1 6PK      -0.452000
     22 C38          5.2600    -3.5120     0.2060 ca         1 6PK      -0.094000
     23 C37          5.9840    -4.2490    -0.7470 ca         1 6PK      -0.111500
     24 C36          5.4420    -5.4300    -1.2820 ca         1 6PK      -0.104000
     25 N15         -1.7360    -0.4660     1.1740 ns         1 6PK      -0.506900
     26 C17         -4.1280     0.0040     1.7840 c          1 6PK       0.590100
     27 N19         -5.4460    -0.3940     1.7280 ns         1 6PK      -0.499900
     28 C26         -8.3460     0.7230     0.5170 ca         1 6PK      -0.109000
     29 C25         -8.9730     1.5200    -0.4570 ca         1 6PK      -0.076500
     30 N28        -10.3740     3.4310    -2.1890 n2         1 6PK      -0.825100
     31 C23         -7.4140     3.3210     0.0140 ca         1 6PK      -0.076500
     32 O18         -3.7790     1.0320     2.3520 o          1 6PK      -0.609100
     33 O14         -0.7800    -2.1750     0.0250 o          1 6PK      -0.570100
     34 O10          2.4590     1.9760     0.5160 o          1 6PK      -0.522000
     35 O9           2.7770     1.3950    -1.9350 o          1 6PK      -0.522000
     36 C5           6.2240     0.5200    -1.4580 ca         1 6PK      -0.085500
     37 C6           7.4550     1.1780    -1.6310 ca         1 6PK      -0.108500
     38 H1           8.8950     2.5420    -0.7630 ha         1 6PK       0.114000
     39 H2           7.5780     2.8890     1.3260 ha         1 6PK       0.116500
     40 H3           5.4020     1.7250     1.6370 ha         1 6PK       0.118500
     41 H4           4.1130    -0.9050    -0.7110 h1         1 6PK       0.090700
     42 H5           4.0320    -0.2840     0.9590 h1         1 6PK       0.090700
     43 H6           0.5190     0.5030     1.4010 h1         1 6PK       0.090700
     44 H7          -3.4240    -1.0290     0.0230 h1         1 6PK       0.069200
     45 H8          -3.2150    -1.9390     1.5430 h1         1 6PK       0.069200
     46 H9          -6.2170     0.9860     3.1250 h1         1 6PK       0.069200
     47 H10         -7.2920    -0.3580     2.7140 h1         1 6PK       0.069200
     48 H11         -5.9470     2.9210     1.5490 ha         1 6PK       0.117000
     49 H12         -7.5150     4.6610    -2.1770 hn         1 6PK       0.460500
     50 H13         -8.8090     4.9740    -3.2480 hn         1 6PK       0.460500
     51 H14          2.3560    -0.6720     2.2900 h1         1 6PK       0.033700
     52 H15          1.0090    -1.7960     2.5330 h1         1 6PK       0.033700
     53 H16          2.6460    -3.8260     2.3150 h1         1 6PK       0.031200
     54 H17          3.8990    -2.5660     2.2730 h1         1 6PK       0.031200
     55 H18          2.4680    -5.4800     0.4040 ha         1 6PK       0.120000
     56 H19          3.7550    -6.7860    -1.2790 ha         1 6PK       0.114000
     57 H20          1.8840    -0.9630    -0.7400 hn         1 6PK       0.520000
     58 H21          5.6850    -2.5960     0.6130 ha         1 6PK       0.120000
     59 H22          6.9630    -3.9040    -1.0710 ha         1 6PK       0.114000
     60 H23          6.0030    -6.0010    -2.0190 ha         1 6PK       0.114000
     61 H24         -1.5670     0.4130     1.6540 hn         1 6PK       0.340500
     62 H25         -5.6460    -1.2550     1.2320 hn         1 6PK       0.319500
     63 H26         -8.7170    -0.2820     0.7060 ha         1 6PK       0.117000
     64 H27         -9.8220     1.1130    -1.0020 ha         1 6PK       0.129500
     65 H28        -10.6980     4.2530    -2.7090 hn         1 6PK       0.372400
     66 H29         -7.0460     4.3330    -0.1410 ha         1 6PK       0.129500
     67 H30          5.8540    -0.1410    -2.2390 ha         1 6PK       0.118500
     68 H31          8.0290     1.0250    -2.5420 ha         1 6PK       0.116500
     69 C7           4.1470    -0.0030    -0.0900 c3         1 6PK      -0.280100
@<TRIPOS>BOND
     1     1     2 ar  
     2     1    37 ar  
     3     1    38 1   
     4     2     3 ar  
     5     2    39 1   
     6     3    18 ar  
     7     3    40 1   
     8     4     5 1   
     9     4    13 1   
    10     4    20 1   
    11     4    43 1   
    12     5    25 1   
    13     5    33 2   
    14     6    25 1   
    15     6    26 1   
    16     6    44 1   
    17     6    45 1   
    18     7     8 1   
    19     7    27 1   
    20     7    46 1   
    21     7    47 1   
    22     8     9 ar  
    23     8    28 ar  
    24     9    31 ar  
    25     9    48 1   
    26    10    11 1   
    27    10    29 ar  
    28    10    31 ar  
    29    11    12 1   
    30    11    30 2   
    31    12    49 1   
    32    12    50 1   
    33    13    21 1   
    34    13    51 1   
    35    13    52 1   
    36    14    15 1   
    37    14    21 1   
    38    14    53 1   
    39    14    54 1   
    40    15    16 ar  
    41    15    22 ar  
    42    16    17 ar  
    43    16    55 1   
    44    17    24 ar  
    45    17    56 1   
    46    18    36 ar  
    47    18    69 1   
    48    19    20 1   
    49    19    34 2   
    50    19    35 2   
    51    19    69 1   
    52    20    57 1   
    53    22    23 ar  
    54    22    58 1   
    55    23    24 ar  
    56    23    59 1   
    57    24    60 1   
    58    25    61 1   
    59    26    27 1   
    60    26    32 2   
    61    27    62 1   
    62    28    29 ar  
    63    28    63 1   
    64    29    64 1   
    65    30    65 1   
    66    31    66 1   
    67    36    37 ar  
    68    36    67 1   
    69    37    68 1   
    70    41    69 1   
    71    42    69 1   
@<TRIPOS>SUBSTRUCTURE
     1 6PK         1 TEMP              0 ****  ****    0 ROOT
