@<TRIPOS>MOLECULE
6PL
  136   135     1     0     0
SMALL
No Charge or Current Charge


@<TRIPOS>ATOM
      1 C26        -18.2700     5.1300     3.1970 c3         1 6PL      -0.088100
      2 C25        -17.3800     4.0370     2.5760 c3         1 6PL      -0.074400
      3 C24        -15.9440     4.5240     2.2800 c3         1 6PL      -0.075400
      4 C23        -15.0540     3.4300     1.6530 c3         1 6PL      -0.074400
      5 C22        -13.6210     3.9130     1.3360 c3         1 6PL      -0.074400
      6 C21        -12.7510     2.8090     0.7000 c3         1 6PL      -0.074400
      7 C20        -11.3210     3.2770     0.3440 c3         1 6PL      -0.074400
      8 C19        -10.4780     2.1570    -0.3020 c3         1 6PL      -0.075400
      9 C18         -9.0530     2.6020    -0.7050 c3         1 6PL      -0.073400
     10 C17         -8.2470     1.4590    -1.3610 c3         1 6PL      -0.075400
     11 C16         -6.8270     1.8700    -1.8160 c3         1 6PL      -0.072400
     12 C15         -6.0660     0.7010    -2.4790 c3         1 6PL      -0.078400
     13 C14         -4.6510     1.0720    -2.9740 c3         1 6PL      -0.071400
     14 C13         -3.9270    -0.1260    -3.6270 c3         1 6PL      -0.066400
     15 C12         -2.4950     0.2020    -4.1190 c3         1 6PL      -0.148400
     16 C11         -1.7520    -1.0730    -4.5200 c          1 6PL       0.604100
     17 O11         -1.7240    -1.5070    -5.6640 o          1 6PL      -0.500000
     18 O3          -1.3580    -1.7790    -3.4140 os         1 6PL      -0.422100
     19 C3          -0.7230    -3.0600    -3.6030 c3         1 6PL       0.169600
     20 C2          -0.6010    -3.8130    -2.2460 c3         1 6PL       0.163300
     21 C1          -1.9570    -4.3140    -1.6510 c3         1 6PL       0.216600
     22 O3P         -2.7990    -3.2120    -1.2800 os         1 6PL      -0.593400
     23 P           -3.9030    -3.4320    -0.1300 p5         1 6PL       1.389800
     24 O1P         -4.9080    -2.3310    -0.1400 o          1 6PL      -0.815500
     25 O2P         -4.5510    -4.7720    -0.2410 o          1 6PL      -0.815500
     26 O4P         -2.9420    -3.3450     1.1660 os         1 6PL      -0.583400
     27 C4          -3.0130    -2.2620     2.1110 c3         1 6PL       0.216600
     28 C5          -1.9240    -1.1840     1.8470 c3         1 6PL       0.086600
     29 N           -2.1560     0.0010     0.8790 n4         1 6PL      -0.487000
     30 C7          -3.5390     0.6330     1.1010 c3         1 6PL       0.073567
     31 C8          -1.0810     1.0610     1.1510 c3         1 6PL       0.073567
     32 C6          -2.0270    -0.4340    -0.5750 c3         1 6PL       0.073567
     33 O2           0.1160    -2.9740    -1.3020 os         1 6PL      -0.432100
     34 C31          0.6010    -3.5260    -0.1440 c          1 6PL       0.597100
     35 O31          0.5770    -4.7200     0.1210 o          1 6PL      -0.491000
     36 C32          1.4100    -2.5060     0.6620 c3         1 6PL      -0.135400
     37 C33          2.8830    -2.4980     0.1910 c3         1 6PL      -0.070400
     38 C34          3.7800    -1.5040     0.9610 c3         1 6PL      -0.074400
     39 C35          5.2390    -1.5240     0.4550 c3         1 6PL      -0.076400
     40 C36          6.1700    -0.5370     1.1930 c3         1 6PL      -0.072400
     41 C37          7.6150    -0.5720     0.6470 c3         1 6PL      -0.075400
     42 C38          8.5660     0.4240     1.3450 c3         1 6PL      -0.073400
     43 C39          9.9960     0.3810     0.7620 c3         1 6PL      -0.075400
     44 C40         10.9650     1.3830     1.4260 c3         1 6PL      -0.073400
     45 C41         12.3820     1.3270     0.8130 c3         1 6PL      -0.074400
     46 C42         13.3690     2.3310     1.4480 c3         1 6PL      -0.073400
     47 C43         14.7740     2.2660     0.8070 c3         1 6PL      -0.074400
     48 C44         15.7730     3.2750     1.4130 c3         1 6PL      -0.073400
     49 C45         17.1660     3.2090     0.7480 c3         1 6PL      -0.075400
     50 C46         18.1680     4.2310     1.3280 c3         1 6PL      -0.075400
     51 C47         19.5540     4.1680     0.6490 c3         1 6PL      -0.075400
     52 C48         20.5500     5.1980     1.2140 c3         1 6PL      -0.088100
     53 H261       -18.3530     5.9910     2.5230 hc         1 6PL       0.031367
     54 H262       -19.2780     4.7420     3.3830 hc         1 6PL       0.031367
     55 H263       -17.8530     5.4770     4.1500 hc         1 6PL       0.031367
     56 H251       -17.8440     3.6860     1.6470 hc         1 6PL       0.037200
     57 H252       -17.3420     3.1790     3.2570 hc         1 6PL       0.037200
     58 H241       -15.4830     4.8760     3.2110 hc         1 6PL       0.036700
     59 H242       -15.9890     5.3840     1.6010 hc         1 6PL       0.036700
     60 H231       -15.5250     3.0720     0.7290 hc         1 6PL       0.037700
     61 H232       -15.0040     2.5730     2.3360 hc         1 6PL       0.037700
     62 H221       -13.1420     4.2660     2.2570 hc         1 6PL       0.036200
     63 H222       -13.6710     4.7700     0.6520 hc         1 6PL       0.036200
     64 H211       -13.2450     2.4450    -0.2090 hc         1 6PL       0.038200
     65 H212       -12.6910     1.9590     1.3910 hc         1 6PL       0.038200
     66 H201       -10.8170     3.6300     1.2520 hc         1 6PL       0.035700
     67 H202       -11.3780     4.1290    -0.3430 hc         1 6PL       0.035700
     68 H191       -11.0010     1.7860    -1.1930 hc         1 6PL       0.039700
     69 H192       -10.4070     1.3150     0.3980 hc         1 6PL       0.039700
     70 H181        -8.5190     2.9610     0.1830 hc         1 6PL       0.034200
     71 H182        -9.1200     3.4440    -1.4040 hc         1 6PL       0.034200
     72 H171        -8.8040     1.0870    -2.2300 hc         1 6PL       0.041200
     73 H172        -8.1700     0.6250    -0.6530 hc         1 6PL       0.041200
     74 H161        -6.2570     2.2320    -0.9510 hc         1 6PL       0.029700
     75 H162        -6.9000     2.7030    -2.5260 hc         1 6PL       0.029700
     76 H151        -6.6530     0.3280    -3.3270 hc         1 6PL       0.046200
     77 H152        -5.9870    -0.1240    -1.7600 hc         1 6PL       0.046200
     78 H141        -4.0570     1.4380    -2.1270 hc         1 6PL       0.023700
     79 H142        -4.7200     1.8920    -3.6990 hc         1 6PL       0.023700
     80 H131        -4.5200    -0.4970    -4.4730 hc         1 6PL       0.058700
     81 H132        -3.8810    -0.9440    -2.8970 hc         1 6PL       0.058700
     82 H121        -1.9590     0.6640    -3.2830 hc         1 6PL       0.075200
     83 H122        -2.5480     0.8890    -4.9720 hc         1 6PL       0.075200
     84 H31          0.2770    -2.9290    -4.0370 h1         1 6PL       0.055700
     85 H32         -1.3050    -3.6870    -4.2930 h1         1 6PL       0.055700
     86 H2          -0.0020    -4.7090    -2.4570 h1         1 6PL       0.063700
     87 H11         -2.4580    -4.9330    -2.4060 h1         1 6PL       0.047700
     88 H12         -1.7580    -4.9620    -0.7880 h1         1 6PL       0.047700
     89 H41         -4.0050    -1.7970     2.1360 h1         1 6PL       0.057200
     90 H42         -2.8410    -2.6640     3.1170 h1         1 6PL       0.057200
     91 H51         -1.7320    -0.7210     2.8170 hx         1 6PL       0.078700
     92 H52         -1.0020    -1.6860     1.5520 hx         1 6PL       0.078700
     93 H71         -3.6330     0.9440     2.1430 hx         1 6PL       0.095367
     94 H72         -3.6510     1.5000     0.4470 hx         1 6PL       0.095367
     95 H73         -4.3140    -0.0990     0.8630 hx         1 6PL       0.095367
     96 H81         -0.0940     0.6230     0.9870 hx         1 6PL       0.095367
     97 H82         -1.2250     1.9050     0.4740 hx         1 6PL       0.095367
     98 H83         -1.1630     1.4040     2.1850 hx         1 6PL       0.095367
     99 H61         -2.9000    -1.0210    -0.8560 hx         1 6PL       0.095367
    100 H62         -1.9790     0.4530    -1.2070 hx         1 6PL       0.095367
    101 H63         -1.1210    -1.0280    -0.7040 hx         1 6PL       0.095367
    102 H321         1.3740    -2.7700     1.7250 hc         1 6PL       0.065200
    103 H322         0.9990    -1.5030     0.4960 hc         1 6PL       0.065200
    104 H331         2.9130    -2.2540    -0.8790 hc         1 6PL       0.056200
    105 H332         3.2980    -3.5080     0.2970 hc         1 6PL       0.056200
    106 H341         3.7610    -1.7510     2.0300 hc         1 6PL       0.034200
    107 H342         3.3720    -0.4910     0.8560 hc         1 6PL       0.034200
    108 H351         5.2490    -1.2890    -0.6170 hc         1 6PL       0.041200
    109 H352         5.6410    -2.5400     0.5610 hc         1 6PL       0.041200
    110 H361         6.1810    -0.7780     2.2630 hc         1 6PL       0.035700
    111 H362         5.7700     0.4800     1.0950 hc         1 6PL       0.035700
    112 H371         7.5950    -0.3530    -0.4280 hc         1 6PL       0.038200
    113 H372         8.0150    -1.5880     0.7570 hc         1 6PL       0.038200
    114 H381         8.6040     0.1990     2.4190 hc         1 6PL       0.036200
    115 H382         8.1650     1.4400     1.2430 hc         1 6PL       0.036200
    116 H391         9.9500     0.5890    -0.3140 hc         1 6PL       0.037700
    117 H392        10.3980    -0.6340     0.8740 hc         1 6PL       0.037700
    118 H401        11.0240     1.1710     2.5010 hc         1 6PL       0.036700
    119 H402        10.5650     2.3980     1.3200 hc         1 6PL       0.036700
    120 H411        12.3150     1.5260    -0.2630 hc         1 6PL       0.037200
    121 H412        12.7820     0.3120     0.9250 hc         1 6PL       0.037200
    122 H421        13.4510     2.1280     2.5230 hc         1 6PL       0.036700
    123 H422        12.9690     3.3460     1.3420 hc         1 6PL       0.036700
    124 H431        14.6840     2.4550    -0.2700 hc         1 6PL       0.037200
    125 H432        15.1740     1.2510     0.9210 hc         1 6PL       0.037200
    126 H441        15.8740     3.0820     2.4880 hc         1 6PL       0.036700
    127 H442        15.3700     4.2890     1.3060 hc         1 6PL       0.036700
    128 H451        17.0600     3.3860    -0.3290 hc         1 6PL       0.036700
    129 H452        17.5740     2.1970     0.8660 hc         1 6PL       0.036700
    130 H461        18.2830     4.0500     2.4040 hc         1 6PL       0.036700
    131 H462        17.7570     5.2410     1.2150 hc         1 6PL       0.036700
    132 H471        19.4400     4.3380    -0.4290 hc         1 6PL       0.036700
    133 H472        19.9740     3.1620     0.7700 hc         1 6PL       0.036700
    134 H481        21.5170     5.1170     0.7030 hc         1 6PL       0.031367
    135 H482        20.1730     6.2190     1.0760 hc         1 6PL       0.031367
    136 H483        20.7150     5.0320     2.2860 hc         1 6PL       0.031367
@<TRIPOS>BOND
     1     1     2 1   
     2     1    53 1   
     3     1    54 1   
     4     1    55 1   
     5     2     3 1   
     6     2    56 1   
     7     2    57 1   
     8     3     4 1   
     9     3    58 1   
    10     3    59 1   
    11     4     5 1   
    12     4    60 1   
    13     4    61 1   
    14     5     6 1   
    15     5    62 1   
    16     5    63 1   
    17     6     7 1   
    18     6    64 1   
    19     6    65 1   
    20     7     8 1   
    21     7    66 1   
    22     7    67 1   
    23     8     9 1   
    24     8    68 1   
    25     8    69 1   
    26     9    10 1   
    27     9    70 1   
    28     9    71 1   
    29    10    11 1   
    30    10    72 1   
    31    10    73 1   
    32    11    12 1   
    33    11    74 1   
    34    11    75 1   
    35    12    13 1   
    36    12    76 1   
    37    12    77 1   
    38    13    14 1   
    39    13    78 1   
    40    13    79 1   
    41    14    15 1   
    42    14    80 1   
    43    14    81 1   
    44    15    16 1   
    45    15    82 1   
    46    15    83 1   
    47    16    17 2   
    48    16    18 1   
    49    18    19 1   
    50    19    20 1   
    51    19    84 1   
    52    19    85 1   
    53    20    21 1   
    54    20    33 1   
    55    20    86 1   
    56    21    22 1   
    57    21    87 1   
    58    21    88 1   
    59    22    23 1   
    60    23    24 1   
    61    23    25 1   
    62    23    26 1   
    63    26    27 1   
    64    27    28 1   
    65    27    89 1   
    66    27    90 1   
    67    28    29 1   
    68    28    91 1   
    69    28    92 1   
    70    29    30 1   
    71    29    31 1   
    72    29    32 1   
    73    30    93 1   
    74    30    94 1   
    75    30    95 1   
    76    31    96 1   
    77    31    97 1   
    78    31    98 1   
    79    32    99 1   
    80    32   100 1   
    81    32   101 1   
    82    33    34 1   
    83    34    35 2   
    84    34    36 1   
    85    36    37 1   
    86    36   102 1   
    87    36   103 1   
    88    37    38 1   
    89    37   104 1   
    90    37   105 1   
    91    38    39 1   
    92    38   106 1   
    93    38   107 1   
    94    39    40 1   
    95    39   108 1   
    96    39   109 1   
    97    40    41 1   
    98    40   110 1   
    99    40   111 1   
   100    41    42 1   
   101    41   112 1   
   102    41   113 1   
   103    42    43 1   
   104    42   114 1   
   105    42   115 1   
   106    43    44 1   
   107    43   116 1   
   108    43   117 1   
   109    44    45 1   
   110    44   118 1   
   111    44   119 1   
   112    45    46 1   
   113    45   120 1   
   114    45   121 1   
   115    46    47 1   
   116    46   122 1   
   117    46   123 1   
   118    47    48 1   
   119    47   124 1   
   120    47   125 1   
   121    48    49 1   
   122    48   126 1   
   123    48   127 1   
   124    49    50 1   
   125    49   128 1   
   126    49   129 1   
   127    50    51 1   
   128    50   130 1   
   129    50   131 1   
   130    51    52 1   
   131    51   132 1   
   132    51   133 1   
   133    52   134 1   
   134    52   135 1   
   135    52   136 1   
@<TRIPOS>SUBSTRUCTURE
     1 6PL         1 TEMP              0 ****  ****    0 ROOT
