@<TRIPOS>MOLECULE
6PL
  136   135     1     0     0
SMALL
abcg2


@<TRIPOS>ATOM
      1 C26        -19.0050     6.7320     2.6230 c3         1 6PL      -0.088100
      2 C25        -18.2460     6.0430     1.4980 c3         1 6PL      -0.074400
      3 C24        -16.8590     5.5730     1.9200 c3         1 6PL      -0.075400
      4 C23        -16.0830     4.8930     0.7990 c3         1 6PL      -0.074400
      5 C22        -14.7010     4.4170     1.2290 c3         1 6PL      -0.074400
      6 C21        -13.9210     3.7390     0.1090 c3         1 6PL      -0.074400
      7 C20        -12.5410     3.2590     0.5420 c3         1 6PL      -0.074400
      8 C19        -11.7600     2.5810    -0.5770 c3         1 6PL      -0.075400
      9 C18        -10.3810     2.0990    -0.1430 c3         1 6PL      -0.073400
     10 C17         -9.6020     1.4220    -1.2640 c3         1 6PL      -0.075400
     11 C16         -8.2240     0.9360    -0.8340 c3         1 6PL      -0.072400
     12 C15         -7.4520     0.2580    -1.9600 c3         1 6PL      -0.078400
     13 C14         -6.0770    -0.2380    -1.5320 c3         1 6PL      -0.071400
     14 C13         -5.3180    -0.9280    -2.6590 c3         1 6PL      -0.066400
     15 C12         -3.9500    -1.4060    -2.2050 c3         1 6PL      -0.148400
     16 C11         -3.1900    -2.1690    -3.2520 c          1 6PL       0.604100
     17 O11         -3.6090    -2.4630    -4.3450 o          1 6PL      -0.500000
     18 O3          -1.9840    -2.5130    -2.8160 os         1 6PL      -0.422100
     19 C3          -1.1870    -3.3510    -3.6430 c3         1 6PL       0.169600
     20 C2          -0.0640    -3.9540    -2.8320 c3         1 6PL       0.163300
     21 C1          -0.5140    -4.8300    -1.6730 c3         1 6PL       0.216600
     22 O3P         -1.0020    -4.0380    -0.6140 os         1 6PL      -0.593400
     23 P           -2.1610    -4.6290     0.3690 p5         1 6PL       1.389800
     24 O1P         -3.5150    -4.1070    -0.0190 o          1 6PL      -0.815500
     25 O2P         -1.9640    -6.0990     0.5750 o          1 6PL      -0.815500
     26 O4P         -1.6260    -3.7850     1.6820 os         1 6PL      -0.583400
     27 C4          -2.5020    -3.5360     2.7540 c3         1 6PL       0.216600
     28 C5          -2.4290    -2.1030     3.2300 c3         1 6PL       0.086600
     29 N           -2.9880    -1.0370     2.3210 n4         1 6PL      -0.487000
     30 C7          -4.3770    -1.3660     1.8970 c3         1 6PL       0.073567
     31 C8          -3.0110     0.2340     3.1000 c3         1 6PL       0.073567
     32 C6          -2.1390    -0.8260     1.1110 c3         1 6PL       0.073567
     33 O2           0.7750    -2.8800    -2.3960 os         1 6PL      -0.432100
     34 C31          2.0550    -3.1290    -2.1310 c          1 6PL       0.597100
     35 O31          2.5490    -4.2260    -2.2040 o          1 6PL      -0.491000
     36 C32          2.7910    -1.8720    -1.7500 c3         1 6PL      -0.135400
     37 C33          4.2530    -2.1110    -1.4080 c3         1 6PL      -0.070400
     38 C34          5.0000    -0.8160    -1.1120 c3         1 6PL      -0.074400
     39 C35          6.4590    -1.0630    -0.7510 c3         1 6PL      -0.076400
     40 C36          7.2660     0.2110    -0.5370 c3         1 6PL      -0.072400
     41 C37          8.7070    -0.0710    -0.1320 c3         1 6PL      -0.075400
     42 C38          9.5810     1.1750    -0.0430 c3         1 6PL      -0.073400
     43 C39         11.0030     0.8650     0.4060 c3         1 6PL      -0.075400
     44 C40         11.9380     2.0670     0.3690 c3         1 6PL      -0.073400
     45 C41         13.3530     1.7310     0.8240 c3         1 6PL      -0.074400
     46 C42         14.3240     2.9010     0.7200 c3         1 6PL      -0.073400
     47 C43         15.7340     2.5450     1.1750 c3         1 6PL      -0.074400
     48 C44         16.7260     3.6950     1.0440 c3         1 6PL      -0.073400
     49 C45         18.1310     3.3270     1.5030 c3         1 6PL      -0.075400
     50 C46         19.1330     4.4670     1.3700 c3         1 6PL      -0.075400
     51 C47         20.5340     4.0920     1.8370 c3         1 6PL      -0.075400
     52 C48         21.5310     5.2360     1.7070 c3         1 6PL      -0.088100
     53 H261       -18.4740     7.6210     2.9680 hc         1 6PL       0.031367
     54 H262       -20.0000     7.0460     2.3040 hc         1 6PL       0.031367
     55 H263       -19.1270     6.0690     3.4820 hc         1 6PL       0.031367
     56 H251       -18.1530     6.7270     0.6490 hc         1 6PL       0.037200
     57 H252       -18.8220     5.1860     1.1350 hc         1 6PL       0.037200
     58 H241       -16.9530     4.8830     2.7660 hc         1 6PL       0.036700
     59 H242       -16.2840     6.4300     2.2920 hc         1 6PL       0.036700
     60 H231       -15.9820     5.5870    -0.0430 hc         1 6PL       0.037700
     61 H232       -16.6600     4.0410     0.4230 hc         1 6PL       0.037700
     62 H221       -14.8030     3.7220     2.0700 hc         1 6PL       0.036200
     63 H222       -14.1250     5.2690     1.6080 hc         1 6PL       0.036200
     64 H211       -13.8160     4.4340    -0.7310 hc         1 6PL       0.038200
     65 H212       -14.4970     2.8890    -0.2720 hc         1 6PL       0.038200
     66 H201       -12.6470     2.5630     1.3820 hc         1 6PL       0.035700
     67 H202       -11.9640     4.1090     0.9240 hc         1 6PL       0.035700
     68 H191       -11.6530     3.2780    -1.4160 hc         1 6PL       0.039700
     69 H192       -12.3370     1.7320    -0.9590 hc         1 6PL       0.039700
     70 H181       -10.4880     1.4020     0.6960 hc         1 6PL       0.034200
     71 H182        -9.8030     2.9480     0.2390 hc         1 6PL       0.034200
     72 H171        -9.4960     2.1190    -2.1020 hc         1 6PL       0.041200
     73 H172       -10.1820     0.5740    -1.6470 hc         1 6PL       0.041200
     74 H161        -8.3290     0.2380     0.0040 hc         1 6PL       0.029700
     75 H162        -7.6420     1.7820    -0.4530 hc         1 6PL       0.029700
     76 H151        -7.3410     0.9580    -2.7950 hc         1 6PL       0.046200
     77 H152        -8.0360    -0.5850    -2.3440 hc         1 6PL       0.046200
     78 H141        -6.1890    -0.9350    -0.6950 hc         1 6PL       0.023700
     79 H142        -5.4880     0.6040    -1.1520 hc         1 6PL       0.023700
     80 H131        -5.2130    -0.2390    -3.5020 hc         1 6PL       0.058700
     81 H132        -5.9060    -1.7750    -3.0220 hc         1 6PL       0.058700
     82 H121        -4.0330    -2.0730    -1.3410 hc         1 6PL       0.075200
     83 H122        -3.3370    -0.5620    -1.8720 hc         1 6PL       0.075200
     84 H31         -0.7790    -2.7770    -4.4800 h1         1 6PL       0.055700
     85 H32         -1.7790    -4.1690    -4.0590 h1         1 6PL       0.055700
     86 H2           0.4840    -4.6020    -3.5240 h1         1 6PL       0.063700
     87 H11         -1.2620    -5.5250    -2.0700 h1         1 6PL       0.047700
     88 H12          0.3270    -5.4380    -1.3290 h1         1 6PL       0.047700
     89 H41         -3.5340    -3.8150     2.5280 h1         1 6PL       0.057200
     90 H42         -2.2060    -4.1350     3.6220 h1         1 6PL       0.057200
     91 H51         -2.9970    -2.0360     4.1580 hx         1 6PL       0.078700
     92 H52         -1.3990    -1.8160     3.4440 hx         1 6PL       0.078700
     93 H71         -4.9790    -1.5820     2.7760 hx         1 6PL       0.095367
     94 H72         -4.7920    -0.5060     1.3790 hx         1 6PL       0.095367
     95 H73         -4.3620    -2.2260     1.2320 hx         1 6PL       0.095367
     96 H81         -2.0020     0.4730     3.4260 hx         1 6PL       0.095367
     97 H82         -3.3890     1.0320     2.4670 hx         1 6PL       0.095367
     98 H83         -3.6590     0.1160     3.9640 hx         1 6PL       0.095367
     99 H61         -2.2100    -1.6780     0.4480 hx         1 6PL       0.095367
    100 H62         -2.4960     0.0650     0.6000 hx         1 6PL       0.095367
    101 H63         -1.1090    -0.6750     1.4210 hx         1 6PL       0.095367
    102 H321         2.2670    -1.4040    -0.9110 hc         1 6PL       0.065200
    103 H322         2.7010    -1.1660    -2.5820 hc         1 6PL       0.065200
    104 H331         4.7450    -2.6250    -2.2370 hc         1 6PL       0.056200
    105 H332         4.3250    -2.7780    -0.5450 hc         1 6PL       0.056200
    106 H341         4.5070    -0.2800    -0.2940 hc         1 6PL       0.034200
    107 H342         4.9440    -0.1570    -1.9850 hc         1 6PL       0.034200
    108 H351         6.9300    -1.6530    -1.5460 hc         1 6PL       0.041200
    109 H352         6.5070    -1.6820     0.1510 hc         1 6PL       0.041200
    110 H361         6.7850     0.8290     0.2290 hc         1 6PL       0.035700
    111 H362         7.2530     0.8050    -1.4580 hc         1 6PL       0.035700
    112 H371         9.1550    -0.7660    -0.8500 hc         1 6PL       0.038200
    113 H372         8.7140    -0.5920     0.8320 hc         1 6PL       0.038200
    114 H381         9.1280     1.8970     0.6450 hc         1 6PL       0.036200
    115 H382         9.6060     1.6650    -1.0220 hc         1 6PL       0.036200
    116 H391        11.4160     0.0740    -0.2310 hc         1 6PL       0.037700
    117 H392        10.9800     0.4500     1.4200 hc         1 6PL       0.037700
    118 H401        11.5340     2.8700     0.9950 hc         1 6PL       0.036700
    119 H402        11.9700     2.4670    -0.6510 hc         1 6PL       0.036700
    120 H411        13.7330     0.8950     0.2260 hc         1 6PL       0.037200
    121 H412        13.3250     1.3720     1.8580 hc         1 6PL       0.037200
    122 H421        13.9510     3.7430     1.3130 hc         1 6PL       0.036700
    123 H422        14.3560     3.2530    -0.3170 hc         1 6PL       0.036700
    124 H431        16.0960     1.6890     0.5940 hc         1 6PL       0.037200
    125 H432        15.7040     2.2100     2.2170 hc         1 6PL       0.037200
    126 H441        16.3680     4.5540     1.6230 hc         1 6PL       0.036700
    127 H442        16.7600     4.0270     0.0010 hc         1 6PL       0.036700
    128 H451        18.4850     2.4640     0.9280 hc         1 6PL       0.036700
    129 H452        18.0950     2.9970     2.5480 hc         1 6PL       0.036700
    130 H461        18.7790     5.3320     1.9430 hc         1 6PL       0.036700
    131 H462        19.1750     4.7940     0.3260 hc         1 6PL       0.036700
    132 H471        20.8880     3.2300     1.2630 hc         1 6PL       0.036700
    133 H472        20.4900     3.7630     2.8800 hc         1 6PL       0.036700
    134 H481        22.5220     4.9470     2.0600 hc         1 6PL       0.031367
    135 H482        21.6300     5.5570     0.6690 hc         1 6PL       0.031367
    136 H483        21.2130     6.1040     2.2880 hc         1 6PL       0.031367
@<TRIPOS>BOND
     1     1     2 1   
     2     1    53 1   
     3     1    54 1   
     4     1    55 1   
     5     2     3 1   
     6     2    56 1   
     7     2    57 1   
     8     3     4 1   
     9     3    58 1   
    10     3    59 1   
    11     4     5 1   
    12     4    60 1   
    13     4    61 1   
    14     5     6 1   
    15     5    62 1   
    16     5    63 1   
    17     6     7 1   
    18     6    64 1   
    19     6    65 1   
    20     7     8 1   
    21     7    66 1   
    22     7    67 1   
    23     8     9 1   
    24     8    68 1   
    25     8    69 1   
    26     9    10 1   
    27     9    70 1   
    28     9    71 1   
    29    10    11 1   
    30    10    72 1   
    31    10    73 1   
    32    11    12 1   
    33    11    74 1   
    34    11    75 1   
    35    12    13 1   
    36    12    76 1   
    37    12    77 1   
    38    13    14 1   
    39    13    78 1   
    40    13    79 1   
    41    14    15 1   
    42    14    80 1   
    43    14    81 1   
    44    15    16 1   
    45    15    82 1   
    46    15    83 1   
    47    16    17 2   
    48    16    18 1   
    49    18    19 1   
    50    19    20 1   
    51    19    84 1   
    52    19    85 1   
    53    20    21 1   
    54    20    33 1   
    55    20    86 1   
    56    21    22 1   
    57    21    87 1   
    58    21    88 1   
    59    22    23 1   
    60    23    24 1   
    61    23    25 1   
    62    23    26 1   
    63    26    27 1   
    64    27    28 1   
    65    27    89 1   
    66    27    90 1   
    67    28    29 1   
    68    28    91 1   
    69    28    92 1   
    70    29    30 1   
    71    29    31 1   
    72    29    32 1   
    73    30    93 1   
    74    30    94 1   
    75    30    95 1   
    76    31    96 1   
    77    31    97 1   
    78    31    98 1   
    79    32    99 1   
    80    32   100 1   
    81    32   101 1   
    82    33    34 1   
    83    34    35 2   
    84    34    36 1   
    85    36    37 1   
    86    36   102 1   
    87    36   103 1   
    88    37    38 1   
    89    37   104 1   
    90    37   105 1   
    91    38    39 1   
    92    38   106 1   
    93    38   107 1   
    94    39    40 1   
    95    39   108 1   
    96    39   109 1   
    97    40    41 1   
    98    40   110 1   
    99    40   111 1   
   100    41    42 1   
   101    41   112 1   
   102    41   113 1   
   103    42    43 1   
   104    42   114 1   
   105    42   115 1   
   106    43    44 1   
   107    43   116 1   
   108    43   117 1   
   109    44    45 1   
   110    44   118 1   
   111    44   119 1   
   112    45    46 1   
   113    45   120 1   
   114    45   121 1   
   115    46    47 1   
   116    46   122 1   
   117    46   123 1   
   118    47    48 1   
   119    47   124 1   
   120    47   125 1   
   121    48    49 1   
   122    48   126 1   
   123    48   127 1   
   124    49    50 1   
   125    49   128 1   
   126    49   129 1   
   127    50    51 1   
   128    50   130 1   
   129    50   131 1   
   130    51    52 1   
   131    51   132 1   
   132    51   133 1   
   133    52   134 1   
   134    52   135 1   
   135    52   136 1   
@<TRIPOS>SUBSTRUCTURE
     1 6PL         1 TEMP              0 ****  ****    0 ROOT
