@<TRIPOS>MOLECULE
6PM
   42    44     1     0     0
SMALL
No Charge or Current Charge


@<TRIPOS>ATOM
      1 C01         -2.9410     1.3000    -0.3950 cc         1 6PM      -0.139000
      2 C02         -2.9910     0.0350     0.1130 cd         1 6PM      -0.151000
      3 C06         -4.6640     3.1820    -0.3520 c3         1 6PM       0.073900
      4 C07         -4.7730    -1.3620     1.4440 c3         1 6PM      -0.127400
      5 N09         -1.8340    -2.2110     0.4630 na         1 6PM      -0.002200
      6 C11          0.0290    -1.8460    -0.5040 cc         1 6PM       0.262300
      7 C13          1.4240    -1.9990    -1.0670 c3         1 6PM      -0.035700
      8 C15          1.4070    -2.0920    -2.6120 c3         1 6PM      -0.080100
      9 C16          3.0500    -1.1590     0.6910 ca         1 6PM      -0.064000
     10 C17          3.9210    -0.1930     1.2240 ca         1 6PM      -0.173500
     11 C18          4.1300     1.0220     0.5550 ca         1 6PM       0.137100
     12 C19          3.4550     1.2690    -0.6590 ca         1 6PM      -0.173500
     13 C20          2.5840     0.3030    -1.1920 ca         1 6PM      -0.064000
     14 C22          5.2760     3.2080     0.5210 c3         1 6PM       0.149900
     15 C03         -4.2480    -0.1400     0.7400 cd         1 6PM       0.270300
     16 N04         -4.9910     0.9480     0.6520 nc         1 6PM      -0.523800
     17 N05         -4.1810     1.8280    -0.0460 na         1 6PM       0.138800
     18 C08         -1.9040    -0.8990    -0.0110 cd         1 6PM      -0.040000
     19 N10         -0.6090    -2.8070     0.1480 nd         1 6PM      -0.521800
     20 C12         -0.7190    -0.6620    -0.6300 cc         1 6PM      -0.231000
     21 C14          2.3770    -0.9250    -0.5250 ca         1 6PM      -0.107300
     22 O21          4.9950     1.9330     1.1260 os         1 6PM      -0.343100
     23 H1          -2.1830     1.8470    -0.9420 h4         1 6PM       0.158000
     24 H2          -5.5730     3.1180    -0.9620 h1         1 6PM       0.058367
     25 H3          -4.8880     3.7110     0.5820 h1         1 6PM       0.058367
     26 H4          -3.8950     3.7350    -0.9050 h1         1 6PM       0.058367
     27 H5          -4.1340    -1.6280     2.2930 hc         1 6PM       0.050033
     28 H6          -5.7850    -1.2000     1.8320 hc         1 6PM       0.050033
     29 H7          -4.8150    -2.2180     0.7600 hc         1 6PM       0.050033
     30 H8          -2.5560    -2.7100     0.9760 hn         1 6PM       0.370000
     31 H9           1.8060    -2.9710    -0.7270 hc         1 6PM       0.066700
     32 H10          0.9290    -1.2140    -3.0630 hc         1 6PM       0.036367
     33 H11          2.4260    -2.1780    -3.0070 hc         1 6PM       0.036367
     34 H12          0.8440    -2.9770    -2.9320 hc         1 6PM       0.036367
     35 H13          2.8970    -2.0930     1.2290 ha         1 6PM       0.112000
     36 H14          4.4350    -0.3870     2.1610 ha         1 6PM       0.119000
     37 H15          3.5890     2.2010    -1.1990 ha         1 6PM       0.119000
     38 H16          2.0680     0.5230    -2.1230 ha         1 6PM       0.112000
     39 H17          5.9870     3.7720     1.1360 h1         1 6PM       0.038700
     40 H18          5.7170     3.0770    -0.4760 h1         1 6PM       0.038700
     41 H19          4.3600     3.8040     0.4250 h1         1 6PM       0.038700
     42 H20         -0.3900     0.2440    -1.1250 ha         1 6PM       0.137000
@<TRIPOS>BOND
     1     1     2 2   
     2     1    17 1   
     3     1    23 1   
     4     2    15 1   
     5     2    18 1   
     6     3    17 1   
     7     3    24 1   
     8     3    25 1   
     9     3    26 1   
    10     4    15 1   
    11     4    27 1   
    12     4    28 1   
    13     4    29 1   
    14     5    18 1   
    15     5    19 1   
    16     5    30 1   
    17     6     7 1   
    18     6    19 2   
    19     6    20 1   
    20     7     8 1   
    21     7    21 1   
    22     7    31 1   
    23     8    32 1   
    24     8    33 1   
    25     8    34 1   
    26     9    10 ar  
    27     9    21 ar  
    28     9    35 1   
    29    10    11 ar  
    30    10    36 1   
    31    11    12 ar  
    32    11    22 1   
    33    12    13 ar  
    34    12    37 1   
    35    13    21 ar  
    36    13    38 1   
    37    14    22 1   
    38    14    39 1   
    39    14    40 1   
    40    14    41 1   
    41    15    16 2   
    42    16    17 1   
    43    18    20 2   
    44    20    42 1   
@<TRIPOS>SUBSTRUCTURE
     1 6PM         1 TEMP              0 ****  ****    0 ROOT
