@<TRIPOS>MOLECULE
6PM
   42    44     1     0     0
SMALL
bcc


@<TRIPOS>ATOM
      1 C01         -3.4030     1.2980    -0.6860 cc         1 6PM      -0.106300
      2 C02         -3.1400     0.1430     0.0250 cd         1 6PM      -0.216300
      3 C06         -5.3640     2.8300    -0.8590 c3         1 6PM       0.044600
      4 C07         -4.6390    -1.1940     1.7070 c3         1 6PM      -0.127400
      5 N09         -1.5910    -1.6200     0.8110 na         1 6PM      -0.002600
      6 C11          0.0670    -1.5090    -0.4880 cc         1 6PM       0.327600
      7 C13          1.4180    -1.8390    -1.0530 c3         1 6PM      -0.035700
      8 C15          1.4070    -1.8290    -2.5830 c3         1 6PM      -0.080100
      9 C16          3.4850    -1.4280     0.3420 ca         1 6PM      -0.082000
     10 C17          4.4770    -0.6140     0.8610 ca         1 6PM      -0.191500
     11 C18          4.4970     0.7470     0.5570 ca         1 6PM       0.137100
     12 C19          3.5060     1.2700    -0.2710 ca         1 6PM      -0.191500
     13 C20          2.5200     0.4340    -0.7810 ca         1 6PM      -0.082000
     14 C22          5.5670     2.8500     0.8080 c3         1 6PM       0.126700
     15 C03         -4.3280    -0.0860     0.7610 cd         1 6PM       0.335600
     16 N04         -5.2180     0.8550     0.5050 nc         1 6PM      -0.523800
     17 N05         -4.6450     1.6790    -0.3680 na         1 6PM       0.117400
     18 C08         -1.9110    -0.6180    -0.0340 cd         1 6PM       0.010700
     19 N10         -0.4060    -2.1710     0.5530 nd         1 6PM      -0.521800
     20 C12         -0.8410    -0.5190    -0.9040 cc         1 6PM      -0.314300
     21 C14          2.4870    -0.9250    -0.4910 ca         1 6PM      -0.107300
     22 O21          5.4980     1.4690     1.1000 os         1 6PM      -0.319900
     23 H1          -2.7940     1.8560    -1.3790 h4         1 6PM       0.176000
     24 H2          -6.2620     2.5180    -1.3880 h1         1 6PM       0.058367
     25 H3          -5.6420     3.4820    -0.0340 h1         1 6PM       0.058367
     26 H4          -4.7230     3.3790    -1.5430 h1         1 6PM       0.058367
     27 H5          -4.0060    -1.1550     2.5970 hc         1 6PM       0.050033
     28 H6          -5.6730    -1.1310     2.0420 hc         1 6PM       0.050033
     29 H7          -4.4980    -2.1710     1.2410 hc         1 6PM       0.050033
     30 H8          -2.1360    -1.9770     1.5790 hn         1 6PM       0.319700
     31 H9           1.6550    -2.8550    -0.7250 hc         1 6PM       0.066700
     32 H10          1.1680    -0.8430    -2.9830 hc         1 6PM       0.036367
     33 H11          2.3850    -2.1140    -2.9730 hc         1 6PM       0.036367
     34 H12          0.6700    -2.5330    -2.9690 hc         1 6PM       0.036367
     35 H13          3.4890    -2.4820     0.5920 ha         1 6PM       0.130000
     36 H14          5.2420    -1.0310     1.5040 ha         1 6PM       0.137000
     37 H15          3.4840     2.3190    -0.5320 ha         1 6PM       0.137000
     38 H16          1.7640     0.8750    -1.4210 ha         1 6PM       0.130000
     39 H17          6.4390     3.2340     1.3320 h1         1 6PM       0.038700
     40 H18          5.6900     3.0370    -0.2620 h1         1 6PM       0.038700
     41 H19          4.6830     3.3890     1.1590 h1         1 6PM       0.038700
     42 H20         -0.7460     0.1670    -1.7300 ha         1 6PM       0.155000
@<TRIPOS>BOND
     1     1     2 2   
     2     1    17 1   
     3     1    23 1   
     4     2    15 1   
     5     2    18 1   
     6     3    17 1   
     7     3    24 1   
     8     3    25 1   
     9     3    26 1   
    10     4    15 1   
    11     4    27 1   
    12     4    28 1   
    13     4    29 1   
    14     5    18 1   
    15     5    19 1   
    16     5    30 1   
    17     6     7 1   
    18     6    19 2   
    19     6    20 1   
    20     7     8 1   
    21     7    21 1   
    22     7    31 1   
    23     8    32 1   
    24     8    33 1   
    25     8    34 1   
    26     9    10 ar  
    27     9    21 ar  
    28     9    35 1   
    29    10    11 ar  
    30    10    36 1   
    31    11    12 ar  
    32    11    22 1   
    33    12    13 ar  
    34    12    37 1   
    35    13    21 ar  
    36    13    38 1   
    37    14    22 1   
    38    14    39 1   
    39    14    40 1   
    40    14    41 1   
    41    15    16 2   
    42    16    17 1   
    43    18    20 2   
    44    20    42 1   
@<TRIPOS>SUBSTRUCTURE
     1 6PM         1 TEMP              0 ****  ****    0 ROOT
