@<TRIPOS>MOLECULE
6PN
   42    43     1     0     0
SMALL
No Charge or Current Charge


@<TRIPOS>ATOM
      1 CAA         -8.4610    -1.0030     0.9880 c3         1 6PN      -0.088100
      2 OAB          1.1880     2.8270     0.8050 oh         1 6PN      -0.530100
      3 CAC          6.1720    -1.4960    -0.4090 ca         1 6PN      -0.139000
      4 CAD          5.2240    -1.0120    -1.3280 ca         1 6PN      -0.079500
      5 CAE          5.9970    -1.2730     0.9680 ca         1 6PN      -0.079500
      6 CAF          4.0970    -0.3080    -0.8680 ca         1 6PN      -0.156000
      7 CAG          4.8700    -0.5700     1.4270 ca         1 6PN      -0.156000
      8 CAH         -0.2230    -0.8710    -0.5200 ca         1 6PN      -0.141000
      9 CAI          1.0750    -0.7690     0.0130 ca         1 6PN      -0.074000
     10 CAJ         -0.5620     1.5110    -0.1650 ca         1 6PN      -0.144000
     11 CAK         -7.4180    -0.7000    -0.1050 c3         1 6PN      -0.075400
     12 CAL         -5.9810    -0.5780     0.4470 c3         1 6PN      -0.075400
     13 CAM         -4.9360    -0.2740    -0.6490 c3         1 6PN      -0.075400
     14 CAN         -3.4990    -0.1510    -0.0950 c3         1 6PN      -0.073400
     15 CAO         -2.4520     0.1520    -1.1880 c3         1 6PN      -0.034100
     16 OAP          2.8260     0.6020     0.9880 os         1 6PN      -0.261200
     17 CAQ         -1.0460     0.2680    -0.6160 ca         1 6PN      -0.036300
     18 CAR          0.7320     1.6170     0.3680 ca         1 6PN       0.144100
     19 CAS          3.9140    -0.0970     0.5130 ca         1 6PN       0.120100
     20 CAT          1.5600     0.4810     0.4490 ca         1 6PN      -0.007900
     21 HAA         -8.4780    -0.2060     1.7400 hc         1 6PN       0.031700
     22 HAAA        -9.4630    -1.0810     0.5490 hc         1 6PN       0.031700
     23 HAAB        -8.2320    -1.9510     1.4910 hc         1 6PN       0.031700
     24 HOAB         2.1000     2.6830     1.1390 ho         1 6PN       0.481000
     25 HAD          5.3640    -1.1790    -2.3940 ha         1 6PN       0.114000
     26 HAE          6.7350    -1.6440     1.6780 ha         1 6PN       0.114000
     27 HAF          3.3720     0.0730    -1.5820 ha         1 6PN       0.127500
     28 HAG          4.7330    -0.3950     2.4920 ha         1 6PN       0.127500
     29 HAH         -0.5900    -1.8380    -0.8540 ha         1 6PN       0.119000
     30 HAI          1.6950    -1.6590     0.0910 ha         1 6PN       0.128000
     31 HAJ         -1.1920     2.3950    -0.2240 ha         1 6PN       0.131000
     32 HAK         -7.4510    -1.4960    -0.8600 hc         1 6PN       0.036700
     33 HAKA        -7.6940     0.2330    -0.6120 hc         1 6PN       0.036700
     34 HAL         -5.9530     0.2180     1.2030 hc         1 6PN       0.038200
     35 HALA        -5.7100    -1.5120     0.9550 hc         1 6PN       0.038200
     36 HAM         -4.9650    -1.0690    -1.4040 hc         1 6PN       0.037200
     37 HAMA        -5.2080     0.6600    -1.1560 hc         1 6PN       0.037200
     38 HAN         -3.4690     0.6440     0.6600 hc         1 6PN       0.044200
     39 HANA        -3.2260    -1.0850     0.4120 hc         1 6PN       0.044200
     40 HAO         -2.4850    -0.6380    -1.9480 hc         1 6PN       0.048700
     41 HAOA        -2.7260     1.0820    -1.7020 hc         1 6PN       0.048700
     42 HAC          7.0450    -2.0390    -0.7650 ha         1 6PN       0.116000
@<TRIPOS>BOND
     1     1    11 1   
     2     1    21 1   
     3     1    22 1   
     4     1    23 1   
     5     2    18 1   
     6     2    24 1   
     7     3     4 ar  
     8     3     5 ar  
     9     3    42 1   
    10     4     6 ar  
    11     4    25 1   
    12     5     7 ar  
    13     5    26 1   
    14     6    19 ar  
    15     6    27 1   
    16     7    19 ar  
    17     7    28 1   
    18     8     9 ar  
    19     8    17 ar  
    20     8    29 1   
    21     9    20 ar  
    22     9    30 1   
    23    10    17 ar  
    24    10    18 ar  
    25    10    31 1   
    26    11    12 1   
    27    11    32 1   
    28    11    33 1   
    29    12    13 1   
    30    12    34 1   
    31    12    35 1   
    32    13    14 1   
    33    13    36 1   
    34    13    37 1   
    35    14    15 1   
    36    14    38 1   
    37    14    39 1   
    38    15    17 1   
    39    15    40 1   
    40    15    41 1   
    41    16    19 1   
    42    16    20 1   
    43    18    20 ar  
@<TRIPOS>SUBSTRUCTURE
     1 6PN         1 TEMP              0 ****  ****    0 ROOT
