@<TRIPOS>MOLECULE
6PN
   42    43     1     0     0
SMALL
bcc


@<TRIPOS>ATOM
      1 CAA         -8.5180    -0.3600     0.7630 c3         1 6PN      -0.088100
      2 OAB          1.3720     2.0970     0.8700 oh         1 6PN      -0.491100
      3 CAC          6.2450    -0.4060    -0.7740 ca         1 6PN      -0.157000
      4 CAD          5.0390    -0.3170    -1.4520 ca         1 6PN      -0.097500
      5 CAE          6.2390    -0.4540     0.6160 ca         1 6PN      -0.097500
      6 CAF          3.8320    -0.2740    -0.7650 ca         1 6PN      -0.174000
      7 CAG          5.0450    -0.4130     1.3170 ca         1 6PN      -0.174000
      8 CAH         -0.3490    -1.5010    -0.2050 ca         1 6PN      -0.159000
      9 CAI          0.8970    -1.4970     0.4040 ca         1 6PN      -0.092000
     10 CAJ         -0.4160     0.8930    -0.0790 ca         1 6PN      -0.162000
     11 CAK         -7.3990    -0.3500    -0.2680 c3         1 6PN      -0.075400
     12 CAL         -6.0110    -0.3370     0.3630 c3         1 6PN      -0.075400
     13 CAM         -4.8860    -0.3260    -0.6640 c3         1 6PN      -0.075400
     14 CAN         -3.4990    -0.3150    -0.0350 c3         1 6PN      -0.073400
     15 CAO         -2.3830    -0.3010    -1.0810 c3         1 6PN      -0.034100
     16 OAP          2.7110    -0.2700     1.3920 os         1 6PN      -0.261200
     17 CAQ         -1.0150    -0.3030    -0.4590 ca         1 6PN      -0.036300
     18 CAR          0.8330     0.9100     0.5330 ca         1 6PN       0.144100
     19 CAS          3.8420    -0.3210     0.6240 ca         1 6PN       0.120100
     20 CAT          1.4850    -0.2990     0.7690 ca         1 6PN      -0.007900
     21 HAA         -8.4690     0.5210     1.4050 hc         1 6PN       0.031700
     22 HAAA        -9.5000    -0.3700     0.2910 hc         1 6PN       0.031700
     23 HAAB        -8.4510    -1.2400     1.4070 hc         1 6PN       0.031700
     24 HOAB         2.1700     1.9680     1.3970 ho         1 6PN       0.442000
     25 HAD          5.0270    -0.2790    -2.5340 ha         1 6PN       0.132000
     26 HAE          7.1710    -0.5260     1.1620 ha         1 6PN       0.132000
     27 HAF          2.9060    -0.2030    -1.3200 ha         1 6PN       0.145500
     28 HAG          5.0410    -0.4490     2.3990 ha         1 6PN       0.145500
     29 HAH         -0.8010    -2.4430    -0.4880 ha         1 6PN       0.137000
     30 HAI          1.4170    -2.4270     0.5970 ha         1 6PN       0.146000
     31 HAJ         -0.9180     1.8360    -0.2640 ha         1 6PN       0.149000
     32 HAK         -7.4900    -1.2250    -0.9200 hc         1 6PN       0.036700
     33 HAKA        -7.5060     0.5230    -0.9200 hc         1 6PN       0.036700
     34 HAL         -5.9180     0.5380     1.0150 hc         1 6PN       0.038200
     35 HALA        -5.9010    -1.2110     1.0140 hc         1 6PN       0.038200
     36 HAM         -4.9810    -1.2010    -1.3170 hc         1 6PN       0.037200
     37 HAMA        -4.9960     0.5490    -1.3150 hc         1 6PN       0.037200
     38 HAN         -3.3960     0.5590     0.6160 hc         1 6PN       0.044200
     39 HANA        -3.3800    -1.1920     0.6100 hc         1 6PN       0.044200
     40 HAO         -2.4910    -1.1710    -1.7330 hc         1 6PN       0.048700
     41 HAOA        -2.4990     0.5810    -1.7170 hc         1 6PN       0.048700
     42 HAC          7.1780    -0.4400    -1.3190 ha         1 6PN       0.134000
@<TRIPOS>BOND
     1     1    11 1   
     2     1    21 1   
     3     1    22 1   
     4     1    23 1   
     5     2    18 1   
     6     2    24 1   
     7     3     4 ar  
     8     3     5 ar  
     9     3    42 1   
    10     4     6 ar  
    11     4    25 1   
    12     5     7 ar  
    13     5    26 1   
    14     6    19 ar  
    15     6    27 1   
    16     7    19 ar  
    17     7    28 1   
    18     8     9 ar  
    19     8    17 ar  
    20     8    29 1   
    21     9    20 ar  
    22     9    30 1   
    23    10    17 ar  
    24    10    18 ar  
    25    10    31 1   
    26    11    12 1   
    27    11    32 1   
    28    11    33 1   
    29    12    13 1   
    30    12    34 1   
    31    12    35 1   
    32    13    14 1   
    33    13    36 1   
    34    13    37 1   
    35    14    15 1   
    36    14    38 1   
    37    14    39 1   
    38    15    17 1   
    39    15    40 1   
    40    15    41 1   
    41    16    19 1   
    42    16    20 1   
    43    18    20 ar  
@<TRIPOS>SUBSTRUCTURE
     1 6PN         1 TEMP              0 ****  ****    0 ROOT
