@<TRIPOS>MOLECULE
6PP
   30    30     1     0     0
SMALL
bcc


@<TRIPOS>ATOM
      1 CAA          3.3100     1.8430    -0.4420 c3         1 6PP      -0.086100
      2 CAB          3.6800    -1.2510    -1.1750 c3         1 6PP      -0.052900
      3 OAD         -1.4370    -2.0430     0.1040 oh         1 6PP      -0.497100
      4 CAE          1.6650    -1.1440     0.2400 c2         1 6PP      -0.160200
      5 CAF         -1.6390     2.0830    -0.0230 ca         1 6PP      -0.128000
      6 CAG         -2.6600     1.3310    -0.5910 ca         1 6PP      -0.179000
      7 CAH         -0.5660     1.4470     0.5800 ca         1 6PP      -0.122000
      8 CAI          3.4180     0.6410     0.4960 c3         1 6PP      -0.039200
      9 CAJ          0.6970    -0.6280     1.2680 c3         1 6PP       0.017100
     10 CAK          2.8410    -0.6130    -0.1040 c2         1 6PP      -0.117400
     11 CAL         -2.5990    -0.0520    -0.5510 ca         1 6PP       0.044100
     12 CAM         -1.5120    -0.6930     0.0580 ca         1 6PP       0.121100
     13 CAN         -0.4880     0.0560     0.6300 ca         1 6PP      -0.077300
     14 HAA          3.7600     2.7280     0.0090 hc         1 6PP       0.032700
     15 HAAA         3.8200     1.6640    -1.3900 hc         1 6PP       0.032700
     16 HAAB         2.2670     2.0730    -0.6630 hc         1 6PP       0.032700
     17 HAB          3.8250    -0.5780    -2.0240 hc         1 6PP       0.037367
     18 HABA         4.6770    -1.4920    -0.7970 hc         1 6PP       0.037367
     19 HABB         3.2310    -2.1690    -1.5520 hc         1 6PP       0.037367
     20 HOAC        -4.2490    -0.3560    -1.4880 ho         1 6PP       0.435000
     21 HOAD        -2.2190    -2.4370    -0.3000 ho         1 6PP       0.440000
     22 HAE          1.3440    -2.0400    -0.2840 ha         1 6PP       0.127000
     23 HAF         -1.6880     3.1630    -0.0520 ha         1 6PP       0.134000
     24 HAG         -3.5060     1.8190    -1.0620 ha         1 6PP       0.130000
     25 HAH          0.2290     2.0320     1.0260 ha         1 6PP       0.135000
     26 HAI          4.4730     0.4670     0.7300 hc         1 6PP       0.040700
     27 HAIA         2.9340     0.8850     1.4430 hc         1 6PP       0.040700
     28 HAJ          0.3550    -1.4620     1.8870 hc         1 6PP       0.054200
     29 HAJA         1.1820     0.0760     1.9450 hc         1 6PP       0.054200
     30 OAC         -3.5470    -0.8680    -1.0710 oh         1 6PP      -0.522100
@<TRIPOS>BOND
     1     1     8 1   
     2     1    14 1   
     3     1    15 1   
     4     1    16 1   
     5     2    10 1   
     6     2    17 1   
     7     2    18 1   
     8     2    19 1   
     9     3    12 1   
    10     3    21 1   
    11     4     9 1   
    12     4    10 2   
    13     4    22 1   
    14     5     6 ar  
    15     5     7 ar  
    16     5    23 1   
    17     6    11 ar  
    18     6    24 1   
    19     7    13 ar  
    20     7    25 1   
    21     8    10 1   
    22     8    26 1   
    23     8    27 1   
    24     9    13 1   
    25     9    28 1   
    26     9    29 1   
    27    11    12 ar  
    28    11    30 1   
    29    12    13 ar  
    30    20    30 1   
@<TRIPOS>SUBSTRUCTURE
     1 6PP         1 TEMP              0 ****  ****    0 ROOT
