@<TRIPOS>MOLECULE
6PP
   30    30     1     0     0
SMALL
No Charge or Current Charge


@<TRIPOS>ATOM
      1 CAA          3.0510     1.8510    -0.6450 c3         1 6PP      -0.086100
      2 CAB          3.8020    -1.2680    -1.0820 c3         1 6PP      -0.052900
      3 OAD         -1.5250    -2.0900    -0.0150 oh         1 6PP      -0.536100
      4 CAE          1.7380    -1.2610     0.3410 c2         1 6PP      -0.210200
      5 CAF         -1.5150     2.0860     0.0960 ca         1 6PP      -0.110000
      6 CAG         -2.5560     1.3950    -0.5470 ca         1 6PP      -0.161000
      7 CAH         -0.4670     1.3760     0.7070 ca         1 6PP      -0.104000
      8 CAI          3.3230     0.7430     0.3920 c3         1 6PP      -0.039200
      9 CAJ          0.7080    -0.7800     1.3500 c3         1 6PP       0.017100
     10 CAK          2.8570    -0.6340    -0.0740 c2         1 6PP      -0.117400
     11 CAL         -2.5480    -0.0090    -0.5760 ca         1 6PP       0.044100
     12 CAM         -1.4960    -0.7240     0.0360 ca         1 6PP       0.121100
     13 CAN         -0.4460    -0.0340     0.6840 ca         1 6PP      -0.077300
     14 HAA          3.3390     2.8290    -0.2420 hc         1 6PP       0.032700
     15 HAAA         3.6240     1.6810    -1.5640 hc         1 6PP       0.032700
     16 HAAB         1.9860     1.8860    -0.9030 hc         1 6PP       0.032700
     17 HAB          3.8750    -0.6680    -1.9970 hc         1 6PP       0.037367
     18 HABA         4.8120    -1.3710    -0.6670 hc         1 6PP       0.037367
     19 HABB         3.4680    -2.2700    -1.3780 hc         1 6PP       0.037367
     20 HOAC        -4.2000    -0.0340    -1.5680 ho         1 6PP       0.474000
     21 HOAD        -2.3420    -2.3170    -0.5130 ho         1 6PP       0.479000
     22 HAE          1.4960    -2.2460    -0.0620 ha         1 6PP       0.177000
     23 HAF         -1.5190     3.1740     0.1200 ha         1 6PP       0.116000
     24 HAG         -3.3620     1.9540    -1.0170 ha         1 6PP       0.112000
     25 HAH          0.3320     1.9260     1.1990 ha         1 6PP       0.117000
     26 HAI          4.3960     0.7230     0.6220 hc         1 6PP       0.040700
     27 HAIA         2.8330     1.0350     1.3260 hc         1 6PP       0.040700
     28 HAJ          0.3220    -1.6400     1.9110 hc         1 6PP       0.054200
     29 HAJA         1.1720    -0.1480     2.1150 hc         1 6PP       0.054200
     30 OAC         -3.5620    -0.6860    -1.2020 oh         1 6PP      -0.561100
@<TRIPOS>BOND
     1     1     8 1   
     2     1    14 1   
     3     1    15 1   
     4     1    16 1   
     5     2    10 1   
     6     2    17 1   
     7     2    18 1   
     8     2    19 1   
     9     3    12 1   
    10     3    21 1   
    11     4     9 1   
    12     4    10 2   
    13     4    22 1   
    14     5     6 ar  
    15     5     7 ar  
    16     5    23 1   
    17     6    11 ar  
    18     6    24 1   
    19     7    13 ar  
    20     7    25 1   
    21     8    10 1   
    22     8    26 1   
    23     8    27 1   
    24     9    13 1   
    25     9    28 1   
    26     9    29 1   
    27    11    12 ar  
    28    11    30 1   
    29    12    13 ar  
    30    20    30 1   
@<TRIPOS>SUBSTRUCTURE
     1 6PP         1 TEMP              0 ****  ****    0 ROOT
