@<TRIPOS>MOLECULE
6PQ
   38    40     1     0     0
SMALL
abcg2


@<TRIPOS>ATOM
      1 C01          2.7770    -0.3230    -0.0690 cc         1 6PQ      -0.175000
      2 C02          1.5160    -0.9260     0.3010 cc         1 6PQ      -0.066000
      3 N03          4.9440    -0.0010    -0.7750 nd         1 6PQ      -0.646000
      4 C04          3.9370    -0.8900    -0.5250 cd         1 6PQ       0.304300
      5 C07          0.4970    -0.4490     1.1050 cd         1 6PQ      -0.209000
      6 C10         -0.4750    -1.4640     1.1010 cd         1 6PQ       0.258300
      7 C11         -1.8100    -1.4540     1.7750 c3         1 6PQ      -0.050400
      8 C13         -4.7120     0.6970    -0.5940 ca         1 6PQ       0.139100
      9 C15         -3.1880     0.6040     1.2670 ca         1 6PQ      -0.065000
     10 C16         -3.4490    -1.3030    -0.1360 ca         1 6PQ      -0.065000
     11 C17         -4.3720    -0.6220    -0.9060 ca         1 6PQ      -0.172000
     12 C18         -4.1130     1.3100     0.5020 ca         1 6PQ      -0.172000
     13 C21         -5.9850     2.6260    -1.1300 c3         1 6PQ       0.148900
     14 S05          2.9810     1.3890     0.0410 ss         1 6PQ      -0.010400
     15 N06          1.1070    -2.1440    -0.1160 na         1 6PQ       0.006800
     16 N08         -0.0880    -2.4840     0.3560 nc         1 6PQ      -0.514800
     17 C09          4.6040     1.2220    -0.5240 cc         1 6PQ       0.442700
     18 C12         -2.8400    -0.7040     0.9670 ca         1 6PQ      -0.116300
     19 C14          4.1780    -2.3460    -0.7560 c3         1 6PQ      -0.129400
     20 H1           0.4680     0.4900     1.6340 ha         1 6PQ       0.147000
     21 H2          -2.1380    -2.4840     1.9290 hc         1 6PQ       0.059200
     22 H3          -1.7140    -1.0010     2.7630 hc         1 6PQ       0.059200
     23 H4          -2.7350     1.1000     2.1180 ha         1 6PQ       0.114500
     24 H5          -3.1970    -2.3240    -0.3970 ha         1 6PQ       0.114500
     25 H6          -4.8380    -1.1050    -1.7560 ha         1 6PQ       0.120500
     26 H7          -4.3510     2.3280     0.7810 ha         1 6PQ       0.120500
     27 H8           5.0340     3.1780    -1.2850 hc         1 6PQ       0.060367
     28 H9           5.7310     2.8430     0.2940 hc         1 6PQ       0.060367
     29 H10          6.4260     2.0950    -1.1490 hc         1 6PQ       0.060367
     30 H11         -5.1300     3.3040    -1.1890 h1         1 6PQ       0.039367
     31 H12         -6.7090     2.9080    -1.8900 h1         1 6PQ       0.039367
     32 H13         -6.4500     2.7330    -0.1460 h1         1 6PQ       0.039367
     33 H14          1.5790    -2.7670    -0.7500 hn         1 6PQ       0.374000
     34 H15          5.2460    -2.5410    -0.8250 hc         1 6PQ       0.052700
     35 H16          3.7770    -2.9580     0.0520 hc         1 6PQ       0.052700
     36 H17          3.7260    -2.6880    -1.6910 hc         1 6PQ       0.052700
     37 C19          5.4970     2.4020    -0.6750 c3         1 6PQ      -0.131400
     38 O20         -5.6180     1.2880    -1.3990 os         1 6PQ      -0.342100
@<TRIPOS>BOND
     1     1     2 1   
     2     1     4 2   
     3     1    14 1   
     4     2     5 2   
     5     2    15 1   
     6     3     4 1   
     7     3    17 2   
     8     4    19 1   
     9     5     6 1   
    10     5    20 1   
    11     6     7 1   
    12     6    16 2   
    13     7    18 1   
    14     7    21 1   
    15     7    22 1   
    16     8    11 ar  
    17     8    12 ar  
    18     8    38 1   
    19     9    12 ar  
    20     9    18 ar  
    21     9    23 1   
    22    10    11 ar  
    23    10    18 ar  
    24    10    24 1   
    25    11    25 1   
    26    12    26 1   
    27    13    30 1   
    28    13    31 1   
    29    13    32 1   
    30    13    38 1   
    31    14    17 1   
    32    15    16 1   
    33    15    33 1   
    34    17    37 1   
    35    19    34 1   
    36    19    35 1   
    37    19    36 1   
    38    27    37 1   
    39    28    37 1   
    40    29    37 1   
@<TRIPOS>SUBSTRUCTURE
     1 6PQ         1 TEMP              0 ****  ****    0 ROOT
