@<TRIPOS>MOLECULE
6PQ
   38    40     1     0     0
SMALL
No Charge or Current Charge


@<TRIPOS>ATOM
      1 C01          2.6050    -0.3940    -0.0660 cc         1 6PQ      -0.175000
      2 C02          1.4950    -1.1890     0.3990 cc         1 6PQ      -0.066000
      3 N03          4.7530     0.1190    -0.8100 nd         1 6PQ      -0.646000
      4 C04          3.8700    -0.8640    -0.3860 cd         1 6PQ       0.304300
      5 C07          0.2500    -0.7390     0.7150 cd         1 6PQ      -0.209000
      6 C10         -0.5040    -1.8630     1.1160 cd         1 6PQ       0.258300
      7 C11         -1.9450    -1.8620     1.5640 c3         1 6PQ      -0.050400
      8 C13         -4.4270     0.9550    -0.6320 ca         1 6PQ       0.139100
      9 C15         -3.1650     0.3660     1.3730 ca         1 6PQ      -0.065000
     10 C16         -3.2820    -1.1930    -0.4900 ca         1 6PQ      -0.065000
     11 C17         -4.0810    -0.2810    -1.2000 ca         1 6PQ      -0.172000
     12 C18         -3.9650     1.2790     0.6620 ca         1 6PQ      -0.172000
     13 C21         -5.6210     3.1000    -0.8870 c3         1 6PQ       0.148900
     14 S05          2.4860     1.3280    -0.2930 ss         1 6PQ      -0.010400
     15 N06          1.4410    -2.5620     0.6250 na         1 6PQ       0.006800
     16 N08          0.1960    -2.9860     1.0740 nc         1 6PQ      -0.514800
     17 C09          4.1500     1.3000    -0.8070 cc         1 6PQ       0.442700
     18 C12         -2.8220    -0.8750     0.8010 ca         1 6PQ      -0.116300
     19 C14          4.3750    -2.2820    -0.3240 c3         1 6PQ      -0.129400
     20 H1          -0.1050     0.2840     0.6690 ha         1 6PQ       0.147000
     21 H2          -2.3640    -2.8700     1.4600 hc         1 6PQ       0.059200
     22 H3          -1.9800    -1.6430     2.6370 hc         1 6PQ       0.059200
     23 H4          -2.8110     0.6260     2.3680 ha         1 6PQ       0.114500
     24 H5          -3.0180    -2.1460    -0.9440 ha         1 6PQ       0.114500
     25 H6          -4.4330    -0.5330    -2.1970 ha         1 6PQ       0.120500
     26 H7          -4.2120     2.2270     1.1300 ha         1 6PQ       0.120500
     27 H8           4.2130     3.1500    -1.8950 hc         1 6PQ       0.060367
     28 H9           5.0550     3.1860    -0.3330 hc         1 6PQ       0.060367
     29 H10          5.7900     2.3580    -1.7200 hc         1 6PQ       0.060367
     30 H11         -4.7490     3.7310    -0.6760 h1         1 6PQ       0.039367
     31 H12         -6.2380     3.6130    -1.6360 h1         1 6PQ       0.039367
     32 H13         -6.2150     2.9990     0.0300 h1         1 6PQ       0.039367
     33 H14          2.2020    -3.2230     0.4920 hn         1 6PQ       0.374000
     34 H15          5.4240    -2.3470    -0.6380 hc         1 6PQ       0.052700
     35 H16          4.3180    -2.6760     0.6970 hc         1 6PQ       0.052700
     36 H17          3.7970    -2.9350    -0.9880 hc         1 6PQ       0.052700
     37 C19          4.8420     2.5680    -1.2120 c3         1 6PQ      -0.131400
     38 O20         -5.2130     1.8100    -1.3780 os         1 6PQ      -0.342100
@<TRIPOS>BOND
     1     1     2 1   
     2     1     4 2   
     3     1    14 1   
     4     2     5 2   
     5     2    15 1   
     6     3     4 1   
     7     3    17 2   
     8     4    19 1   
     9     5     6 1   
    10     5    20 1   
    11     6     7 1   
    12     6    16 2   
    13     7    18 1   
    14     7    21 1   
    15     7    22 1   
    16     8    11 ar  
    17     8    12 ar  
    18     8    38 1   
    19     9    12 ar  
    20     9    18 ar  
    21     9    23 1   
    22    10    11 ar  
    23    10    18 ar  
    24    10    24 1   
    25    11    25 1   
    26    12    26 1   
    27    13    30 1   
    28    13    31 1   
    29    13    32 1   
    30    13    38 1   
    31    14    17 1   
    32    15    16 1   
    33    15    33 1   
    34    17    37 1   
    35    19    34 1   
    36    19    35 1   
    37    19    36 1   
    38    27    37 1   
    39    28    37 1   
    40    29    37 1   
@<TRIPOS>SUBSTRUCTURE
     1 6PQ         1 TEMP              0 ****  ****    0 ROOT
