@<TRIPOS>MOLECULE
6PR
   24    23     1     0     0
SMALL
No Charge or Current Charge


@<TRIPOS>ATOM
      1 OAH         -3.8330    -1.5370    -0.9930 o          1 6PR      -0.918167
      2 PAP         -2.8270    -0.5150    -0.5860 p5         1 6PR       1.307500
      3 OAG         -2.2130     0.1000    -1.7950 o          1 6PR      -0.918167
      4 OAE         -3.4710     0.5140     0.2770 o          1 6PR      -0.918167
      5 CAJ         -1.5360    -1.3850     0.3280 c3         1 6PR      -0.471400
      6 CAN         -0.5520    -0.3500     0.7940 c          1 6PR       0.636100
      7 OAD         -0.6450     0.2070     1.8800 o          1 6PR      -0.777100
      8 N            0.5110    -0.1470    -0.0440 ns         1 6PR      -0.478900
      9 CA           1.7040     0.6620     0.2810 c3         1 6PR       0.080700
     10 CB           2.9750     0.1100    -0.4250 c3         1 6PR      -0.202400
     11 CG           3.1890    -1.3730    -0.0880 c          1 6PR       0.736000
     12 OD2          2.6940    -2.2100    -0.8280 o          1 6PR      -0.758000
     13 OD1          3.8260    -1.6500     0.9170 o          1 6PR      -0.758000
     14 C            1.4720     2.1830    -0.0130 c          1 6PR       0.580100
     15 O            0.4820     2.6430    -0.5620 o          1 6PR      -0.594100
     16 NAA          2.4680     3.0260     0.3620 nt         1 6PR      -0.637000
     17 HAJ1        -1.0890    -2.0720    -0.3980 hc         1 6PR       0.027700
     18 HAJ2        -1.9990    -1.9130     1.1690 hc         1 6PR       0.027700
     19 HN           0.4900    -0.6610    -0.9160 hn         1 6PR       0.413500
     20 HA           1.8780     0.5830     1.3620 h1         1 6PR       0.045700
     21 HB1          2.8050     0.2410    -1.5010 hc         1 6PR       0.018200
     22 HB2          3.8140     0.7020    -0.0390 hc         1 6PR       0.018200
     23 HAA1         2.3720     4.0160     0.1890 hn         1 6PR       0.270000
     24 HAA2         3.2980     2.6590     0.8060 hn         1 6PR       0.270000
@<TRIPOS>BOND
     1     1     2 1   
     2     2     3 1   
     3     2     4 1   
     4     2     5 1   
     5     5     6 1   
     6     5    17 1   
     7     5    18 1   
     8     6     7 2   
     9     6     8 1   
    10     8     9 1   
    11     8    19 1   
    12     9    10 1   
    13     9    14 1   
    14     9    20 1   
    15    10    11 1   
    16    10    21 1   
    17    10    22 1   
    18    11    12 1   
    19    11    13 1   
    20    14    15 2   
    21    14    16 1   
    22    16    23 1   
    23    16    24 1   
@<TRIPOS>SUBSTRUCTURE
     1 6PR         1 TEMP              0 ****  ****    0 ROOT
