@<TRIPOS>MOLECULE
6PR
   24    23     1     0     0
SMALL
bcc


@<TRIPOS>ATOM
      1 OAH         -3.4740    -1.9450    -0.8430 o          1 6PR      -0.918167
      2 PAP         -2.3990    -0.8590    -0.8370 p5         1 6PR       1.149700
      3 OAG         -1.1810    -1.2000    -1.7290 o          1 6PR      -0.918167
      4 OAE         -2.9270     0.5610    -1.0200 o          1 6PR      -0.918167
      5 CAJ         -1.6830    -0.9170     0.9000 c3         1 6PR      -0.313600
      6 CAN         -0.4620    -0.0670     1.1250 c          1 6PR       0.703100
      7 OAD         -0.2940     0.6290     2.1290 o          1 6PR      -0.777100
      8 N            0.4680    -0.1670     0.1640 ns         1 6PR      -0.545900
      9 CA           1.7000     0.5610     0.2450 c3         1 6PR       0.080700
     10 CB           2.5910     0.1980    -0.9370 c3         1 6PR      -0.202400
     11 CG           3.0820    -1.2650    -0.9240 c          1 6PR       0.946600
     12 OD2          3.2620    -1.7950    -2.0380 o          1 6PR      -0.863300
     13 OD1          3.2990    -1.7790     0.1900 o          1 6PR      -0.863300
     14 C            1.4630     2.0700     0.2490 c          1 6PR       0.647100
     15 O            0.5810     2.5970    -0.4080 o          1 6PR      -0.594100
     16 NAA          2.3530     2.7680     0.9760 nt         1 6PR      -0.704000
     17 HAJ1        -1.4010    -1.9560     1.1030 hc         1 6PR       0.027700
     18 HAJ2        -2.4420    -0.6500     1.6400 hc         1 6PR       0.027700
     19 HN           0.1340    -0.5780    -0.7240 hn         1 6PR       0.413500
     20 HA           2.2270     0.2810     1.1620 h1         1 6PR       0.045700
     21 HB1          2.0750     0.4200    -1.8750 hc         1 6PR       0.018200
     22 HB2          3.4780     0.8410    -0.9190 hc         1 6PR       0.018200
     23 HAA1         2.3240     3.7740     0.9950 hn         1 6PR       0.270000
     24 HAA2         3.0390     2.3150     1.5530 hn         1 6PR       0.270000
@<TRIPOS>BOND
     1     1     2 1   
     2     2     3 1   
     3     2     4 1   
     4     2     5 1   
     5     5     6 1   
     6     5    17 1   
     7     5    18 1   
     8     6     7 2   
     9     6     8 1   
    10     8     9 1   
    11     8    19 1   
    12     9    10 1   
    13     9    14 1   
    14     9    20 1   
    15    10    11 1   
    16    10    21 1   
    17    10    22 1   
    18    11    12 1   
    19    11    13 1   
    20    14    15 2   
    21    14    16 1   
    22    16    23 1   
    23    16    24 1   
@<TRIPOS>SUBSTRUCTURE
     1 6PR         1 TEMP              0 ****  ****    0 ROOT
