@<TRIPOS>MOLECULE
6PS
   37    39     1     0     0
SMALL
No Charge or Current Charge


@<TRIPOS>ATOM
      1 C01          4.8680     1.0610     2.4470 c3         1 6PS      -0.132400
      2 C02          3.9390     0.3330     1.5210 cc         1 6PS       0.444700
      3 C04          2.0880    -0.4360     0.1880 cc         1 6PS      -0.179000
      4 C05          3.2410    -1.1940     0.0650 cd         1 6PS       0.308300
      5 C07          3.4560    -2.4150    -0.7890 c3         1 6PS      -0.129400
      6 N09          0.4870    -1.6650    -1.3930 na         1 6PS       0.010800
      7 C11         -1.2450    -0.5590    -1.2320 cc         1 6PS       0.257300
      8 C13         -2.6650    -0.0720    -1.4220 c3         1 6PS      -0.040700
      9 C15         -3.2870     0.4270    -0.1100 ca         1 6PS      -0.071300
     10 C16         -3.2460     1.7860     0.2750 ca         1 6PS      -0.101500
     11 C17         -3.8150     2.2010     1.4910 ca         1 6PS      -0.111500
     12 C18         -4.4280     1.2640     2.3390 ca         1 6PS      -0.111000
     13 C19         -4.4680    -0.0890     1.9700 ca         1 6PS      -0.111500
     14 C20         -3.8990    -0.5050     0.7540 ca         1 6PS      -0.101500
     15 S03          2.3040     0.8900     1.2940 ss         1 6PS      -0.013400
     16 N06          4.3030    -0.7430     0.8360 nd         1 6PS      -0.646000
     17 C08          0.8420    -0.6770    -0.4930 cc         1 6PS      -0.072000
     18 N10         -0.8030    -1.6300    -1.8790 nd         1 6PS      -0.508800
     19 C12         -0.3200     0.0320    -0.4110 cd         1 6PS      -0.210000
     20 C14         -2.7570     0.9500    -2.5810 c3         1 6PS      -0.082100
     21 H1           4.3710     1.2830     3.3980 hc         1 6PS       0.060367
     22 H2           5.7620     0.4630     2.6630 hc         1 6PS       0.060367
     23 H3           5.1910     2.0070     2.0000 hc         1 6PS       0.060367
     24 H4           3.3060    -2.1840    -1.8500 hc         1 6PS       0.053700
     25 H5           4.4760    -2.8040    -0.6830 hc         1 6PS       0.053700
     26 H6           2.7700    -3.2210    -0.5030 hc         1 6PS       0.053700
     27 H7           1.1120    -2.4020    -1.7110 hn         1 6PS       0.374000
     28 H8          -3.2620    -0.9330    -1.7500 hc         1 6PS       0.067700
     29 H9          -2.7670     2.5300    -0.3570 ha         1 6PS       0.112500
     30 H10         -3.7780     3.2500     1.7780 ha         1 6PS       0.110500
     31 H11         -4.8680     1.5870     3.2800 ha         1 6PS       0.110000
     32 H12         -4.9390    -0.8180     2.6270 ha         1 6PS       0.110500
     33 H13         -3.9320    -1.5580     0.4840 ha         1 6PS       0.112500
     34 H14         -0.4890     0.9130     0.1980 ha         1 6PS       0.147000
     35 H15         -2.4650     0.4790    -3.5270 hc         1 6PS       0.038367
     36 H16         -3.7830     1.3220    -2.6900 hc         1 6PS       0.038367
     37 H17         -2.0890     1.8030    -2.4150 hc         1 6PS       0.038367
@<TRIPOS>BOND
     1     1     2 1   
     2     1    21 1   
     3     1    22 1   
     4     1    23 1   
     5     2    15 1   
     6     2    16 2   
     7     3     4 2   
     8     3    15 1   
     9     3    17 1   
    10     4     5 1   
    11     4    16 1   
    12     5    24 1   
    13     5    25 1   
    14     5    26 1   
    15     6    17 1   
    16     6    18 1   
    17     6    27 1   
    18     7     8 1   
    19     7    18 2   
    20     7    19 1   
    21     8     9 1   
    22     8    20 1   
    23     8    28 1   
    24     9    10 ar  
    25     9    14 ar  
    26    10    11 ar  
    27    10    29 1   
    28    11    12 ar  
    29    11    30 1   
    30    12    13 ar  
    31    12    31 1   
    32    13    14 ar  
    33    13    32 1   
    34    14    33 1   
    35    17    19 2   
    36    19    34 1   
    37    20    35 1   
    38    20    36 1   
    39    20    37 1   
@<TRIPOS>SUBSTRUCTURE
     1 6PS         1 TEMP              0 ****  ****    0 ROOT
