@<TRIPOS>MOLECULE
6PS
   37    39     1     0     0
SMALL
bcc


@<TRIPOS>ATOM
      1 C01          5.9690     1.2050     0.4260 c3         1 6PS      -0.132400
      2 C02          4.6700     0.4850     0.3540 cc         1 6PS       0.444700
      3 C04          2.3790    -0.2290    -0.0530 cc         1 6PS      -0.099400
      4 C05          3.1600    -1.1090     0.6460 cd         1 6PS       0.373600
      5 C07          2.7330    -2.4340     1.1850 c3         1 6PS      -0.129400
      6 N09          0.3870    -1.4870    -0.7840 na         1 6PS       0.010400
      7 C11         -1.1210    -0.0350    -1.0380 cc         1 6PS       0.322600
      8 C13         -2.4880     0.5110    -1.3320 c3         1 6PS      -0.040700
      9 C15         -3.4460     0.2520    -0.1870 ca         1 6PS      -0.071300
     10 C16         -3.1200     0.6070     1.1210 ca         1 6PS      -0.119500
     11 C17         -4.0190     0.3980     2.1570 ca         1 6PS      -0.129500
     12 C18         -5.2610    -0.1710     1.9030 ca         1 6PS      -0.129000
     13 C19         -5.5950    -0.5280     0.6050 ca         1 6PS      -0.129500
     14 C20         -4.6920    -0.3160    -0.4300 ca         1 6PS      -0.119500
     15 S03          3.3050     1.1740    -0.4480 ss         1 6PS      -0.158300
     16 N06          4.4430    -0.6850     0.8580 nd         1 6PS      -0.646000
     17 C08          0.9940    -0.3270    -0.4590 cc         1 6PS      -0.021300
     18 N10         -0.8820    -1.3330    -1.1370 nd         1 6PS      -0.508800
     19 C12          0.0300     0.6520    -0.6170 cd         1 6PS      -0.293300
     20 C14         -2.4440     2.0010    -1.6740 c3         1 6PS      -0.082100
     21 H1           5.8470     2.2060     0.8400 hc         1 6PS       0.060367
     22 H2           6.6600     0.6500     1.0560 hc         1 6PS       0.060367
     23 H3           6.4150     1.3120    -0.5640 hc         1 6PS       0.060367
     24 H4           2.8940    -3.2330     0.4570 hc         1 6PS       0.053700
     25 H5           3.3160    -2.6840     2.0700 hc         1 6PS       0.053700
     26 H6           1.6800    -2.4420     1.4620 hc         1 6PS       0.053700
     27 H7           0.8080    -2.4010    -0.8440 hn         1 6PS       0.323700
     28 H8          -2.8700    -0.0250    -2.2050 hc         1 6PS       0.067700
     29 H9          -2.1510     1.0410     1.3410 ha         1 6PS       0.130500
     30 H10         -3.7460     0.6760     3.1670 ha         1 6PS       0.128500
     31 H11         -5.9600    -0.3370     2.7130 ha         1 6PS       0.128000
     32 H12         -6.5580    -0.9760     0.3930 ha         1 6PS       0.128500
     33 H13         -4.9610    -0.5970    -1.4420 ha         1 6PS       0.130500
     34 H14          0.1500     1.7080    -0.4390 ha         1 6PS       0.165000
     35 H15         -1.7740     2.1910    -2.5130 hc         1 6PS       0.038367
     36 H16         -3.4370     2.3560    -1.9470 hc         1 6PS       0.038367
     37 H17         -2.1030     2.5970    -0.8280 hc         1 6PS       0.038367
@<TRIPOS>BOND
     1     1     2 1   
     2     1    21 1   
     3     1    22 1   
     4     1    23 1   
     5     2    15 1   
     6     2    16 2   
     7     3     4 2   
     8     3    15 1   
     9     3    17 1   
    10     4     5 1   
    11     4    16 1   
    12     5    24 1   
    13     5    25 1   
    14     5    26 1   
    15     6    17 1   
    16     6    18 1   
    17     6    27 1   
    18     7     8 1   
    19     7    18 2   
    20     7    19 1   
    21     8     9 1   
    22     8    20 1   
    23     8    28 1   
    24     9    10 ar  
    25     9    14 ar  
    26    10    11 ar  
    27    10    29 1   
    28    11    12 ar  
    29    11    30 1   
    30    12    13 ar  
    31    12    31 1   
    32    13    14 ar  
    33    13    32 1   
    34    14    33 1   
    35    17    19 2   
    36    19    34 1   
    37    20    35 1   
    38    20    36 1   
    39    20    37 1   
@<TRIPOS>SUBSTRUCTURE
     1 6PS         1 TEMP              0 ****  ****    0 ROOT
