@<TRIPOS>MOLECULE
6PT
   46    48     1     0     0
SMALL
abcg2


@<TRIPOS>ATOM
      1 C18          3.9450    -0.0080     1.0580 ca         1 6PT      -0.071000
      2 C9          -6.3220    -1.3870     0.8900 ca         1 6PT      -0.111000
      3 C10         -6.1910    -0.1770     0.2190 ca         1 6PT      -0.118500
      4 C11         -4.9330     0.3570    -0.0150 ca         1 6PT      -0.088000
      5 C16          4.6060    -0.6130    -1.1540 ca         1 6PT      -0.071000
      6 C12         -1.6100    -1.9300    -0.8030 c          1 6PT       0.597300
      7 C6          -3.7920    -0.3160     0.4180 ca         1 6PT      -0.104900
      8 C5          -1.4650     4.3550    -0.5750 c3         1 6PT      -0.111100
      9 C20          6.4280    -0.1870     0.5570 c          1 6PT       0.712600
     10 C3          -0.1450     0.0650    -0.4750 cc         1 6PT       0.172800
     11 O2           6.6600     0.1390     1.7380 o          1 6PT      -0.719000
     12 C13         -2.6090    -2.1630    -1.8980 c3         1 6PT      -0.191100
     13 N2           0.9340    -0.5540    -1.0280 nu         1 6PT      -0.790000
     14 C14          2.2680    -0.4140    -0.6160 ca         1 6PT       0.238000
     15 C15          3.2760    -0.6810    -1.5370 ca         1 6PT      -0.148000
     16 O3           7.2720    -0.4570    -0.3200 o          1 6PT      -0.719000
     17 C17          4.9670    -0.2660     0.1450 ca         1 6PT      -0.129600
     18 C19          2.6120    -0.0920     0.6950 ca         1 6PT      -0.148000
     19 C21         -0.0080     1.4990    -0.1760 c          1 6PT       0.518200
     20 O4           1.0100     2.1380    -0.4000 o          1 6PT      -0.504000
     21 C2          -1.3850    -0.5130    -0.3640 cd         1 6PT      -0.404800
     22 O1          -0.9360    -2.8250    -0.3450 o          1 6PT      -0.523100
     23 C1          -2.4540     0.2660     0.1710 cd         1 6PT       0.460200
     24 N1          -2.3120     1.5050     0.5160 nc         1 6PT      -0.472300
     25 N3          -1.1270     2.0850     0.3440 n          1 6PT      -0.129800
     26 C4          -1.1110     3.5160     0.6400 c3         1 6PT       0.114000
     27 C8          -5.1900    -2.0550     1.3350 ca         1 6PT      -0.118500
     28 C7          -3.9300    -1.5210     1.1030 ca         1 6PT      -0.088000
     29 H1           4.1990     0.2460     2.0790 ha         1 6PT       0.131000
     30 H4          -4.8330     1.2930    -0.5480 ha         1 6PT       0.125500
     31 H5           5.3780    -0.8240    -1.8820 ha         1 6PT       0.131000
     32 H6          -2.4470     4.0860    -0.9640 hc         1 6PT       0.042033
     33 H7          -1.4900     5.4080    -0.2980 hc         1 6PT       0.042033
     34 H8          -0.7310     4.2340    -1.3710 hc         1 6PT       0.042033
     35 H9          -2.0560    -2.1600    -2.8430 hc         1 6PT       0.059367
     36 H10         -3.0840    -3.1370    -1.7960 hc         1 6PT       0.059367
     37 H11         -3.3680    -1.3880    -1.9690 hc         1 6PT       0.059367
     38 H12          0.7540    -1.3970    -1.5510 hn         1 6PT       0.486000
     39 H13          3.0150    -0.9380    -2.5570 ha         1 6PT       0.092000
     40 H15          1.8420     0.0680     1.4410 ha         1 6PT       0.092000
     41 H16         -0.1280     3.7800     1.0230 h1         1 6PT       0.067700
     42 H17         -1.8320     3.6700     1.4400 h1         1 6PT       0.067700
     43 H18         -5.2860    -2.9880     1.8750 ha         1 6PT       0.110000
     44 H19         -3.0590    -2.0370     1.4880 ha         1 6PT       0.125500
     45 H2          -7.3050    -1.8050     1.0690 ha         1 6PT       0.106000
     46 H3          -7.0710     0.3500    -0.1260 ha         1 6PT       0.110000
@<TRIPOS>BOND
     1     1    17 ar  
     2     1    18 ar  
     3     1    29 1   
     4     2     3 ar  
     5     2    27 ar  
     6     2    45 1   
     7     3     4 ar  
     8     3    46 1   
     9     4     7 ar  
    10     4    30 1   
    11     5    15 ar  
    12     5    17 ar  
    13     5    31 1   
    14     6    12 1   
    15     6    21 1   
    16     6    22 2   
    17     7    23 1   
    18     7    28 ar  
    19     8    26 1   
    20     8    32 1   
    21     8    33 1   
    22     8    34 1   
    23     9    11 1   
    24     9    16 1   
    25     9    17 1   
    26    10    13 1   
    27    10    19 1   
    28    10    21 2   
    29    12    35 1   
    30    12    36 1   
    31    12    37 1   
    32    13    14 1   
    33    13    38 1   
    34    14    15 ar  
    35    14    18 ar  
    36    15    39 1   
    37    18    40 1   
    38    19    20 2   
    39    19    25 1   
    40    21    23 1   
    41    23    24 2   
    42    24    25 1   
    43    25    26 1   
    44    26    41 1   
    45    26    42 1   
    46    27    28 ar  
    47    27    43 1   
    48    28    44 1   
@<TRIPOS>SUBSTRUCTURE
     1 6PT         1 TEMP              0 ****  ****    0 ROOT
