@<TRIPOS>MOLECULE
6PT
   46    48     1     0     0
SMALL
No Charge or Current Charge


@<TRIPOS>ATOM
      1 C18          4.1250    -0.1400     0.8280 ca         1 6PT      -0.071000
      2 C9          -6.4870    -1.1820     0.2340 ca         1 6PT      -0.111000
      3 C10         -5.9630    -0.6860    -0.9700 ca         1 6PT      -0.118500
      4 C11         -4.6370    -0.2200    -1.0220 ca         1 6PT      -0.088000
      5 C16          4.6940    -0.6800    -1.4720 ca         1 6PT      -0.071000
      6 C12         -1.4440    -1.7960    -1.2140 c          1 6PT       0.597300
      7 C6          -3.8240    -0.2580     0.1300 ca         1 6PT      -0.104900
      8 C5          -1.7470     4.5640     0.3840 c3         1 6PT      -0.111100
      9 C20          6.5820    -0.5050     0.2380 c          1 6PT       0.712600
     10 C3          -0.1210     0.2870    -0.6540 cc         1 6PT       0.172800
     11 O2           6.8970    -0.2950     1.4010 o          1 6PT      -0.719000
     12 C13         -2.5340    -2.7820    -0.7880 c3         1 6PT      -0.191100
     13 N2           1.0190    -0.2760    -1.2270 nu         1 6PT      -0.790000
     14 C14          2.3650    -0.3030    -0.8550 ca         1 6PT       0.238000
     15 C15          3.3330    -0.6170    -1.8190 ca         1 6PT      -0.148000
     16 O3           7.4000    -0.7670    -0.6330 o          1 6PT      -0.719000
     17 C17          5.1110    -0.4380    -0.1420 ca         1 6PT      -0.129600
     18 C19          2.7660    -0.0790     0.4740 ca         1 6PT      -0.148000
     19 C21          0.0300     1.6780    -0.0640 c          1 6PT       0.518200
     20 O4           1.0420     2.3750    -0.1340 o          1 6PT      -0.504000
     21 C2          -1.3340    -0.4210    -0.6020 cd         1 6PT      -0.404800
     22 O1          -0.6470    -2.2000    -2.0520 o          1 6PT      -0.523100
     23 C1          -2.4430     0.2440     0.0740 cd         1 6PT       0.460200
     24 N1          -2.3220     1.4360     0.6500 nc         1 6PT      -0.472300
     25 N3          -1.1370     2.1240     0.5840 n          1 6PT      -0.129800
     26 C4          -1.1530     3.4430     1.2600 c3         1 6PT       0.114000
     27 C8          -5.6890    -1.2070     1.3900 ca         1 6PT      -0.118500
     28 C7          -4.3640    -0.7410     1.3410 ca         1 6PT      -0.088000
     29 H1           4.4090     0.0410     1.8620 ha         1 6PT       0.131000
     30 H4          -4.2380     0.1680    -1.9580 ha         1 6PT       0.125500
     31 H5           5.4250    -0.9180    -2.2420 ha         1 6PT       0.131000
     32 H6          -2.7820     4.3310     0.1070 hc         1 6PT       0.042033
     33 H7          -1.7420     5.5160     0.9280 hc         1 6PT       0.042033
     34 H8          -1.1600     4.6870    -0.5330 hc         1 6PT       0.042033
     35 H9          -2.2670    -3.8140    -1.0450 hc         1 6PT       0.059367
     36 H10         -2.7510    -2.6800     0.2790 hc         1 6PT       0.059367
     37 H11         -3.4670    -2.5310    -1.2990 hc         1 6PT       0.059367
     38 H12          0.7780    -0.9930    -1.9190 hn         1 6PT       0.486000
     39 H13          3.0340    -0.8090    -2.8470 ha         1 6PT       0.092000
     40 H15          2.0270     0.1340     1.2400 ha         1 6PT       0.092000
     41 H16         -0.1360     3.7210     1.5660 h1         1 6PT       0.067700
     42 H17         -1.7480     3.3600     2.1790 h1         1 6PT       0.067700
     43 H18         -6.0980    -1.5840     2.3250 ha         1 6PT       0.110000
     44 H19         -3.7520    -0.7580     2.2410 ha         1 6PT       0.125500
     45 H2          -7.5130    -1.5420     0.2740 ha         1 6PT       0.106000
     46 H3          -6.5830    -0.6600    -1.8640 ha         1 6PT       0.110000
@<TRIPOS>BOND
     1     1    17 ar  
     2     1    18 ar  
     3     1    29 1   
     4     2     3 ar  
     5     2    27 ar  
     6     2    45 1   
     7     3     4 ar  
     8     3    46 1   
     9     4     7 ar  
    10     4    30 1   
    11     5    15 ar  
    12     5    17 ar  
    13     5    31 1   
    14     6    12 1   
    15     6    21 1   
    16     6    22 2   
    17     7    23 1   
    18     7    28 ar  
    19     8    26 1   
    20     8    32 1   
    21     8    33 1   
    22     8    34 1   
    23     9    11 1   
    24     9    16 1   
    25     9    17 1   
    26    10    13 1   
    27    10    19 1   
    28    10    21 2   
    29    12    35 1   
    30    12    36 1   
    31    12    37 1   
    32    13    14 1   
    33    13    38 1   
    34    14    15 ar  
    35    14    18 ar  
    36    15    39 1   
    37    18    40 1   
    38    19    20 2   
    39    19    25 1   
    40    21    23 1   
    41    23    24 2   
    42    24    25 1   
    43    25    26 1   
    44    26    41 1   
    45    26    42 1   
    46    27    28 ar  
    47    27    43 1   
    48    28    44 1   
@<TRIPOS>SUBSTRUCTURE
     1 6PT         1 TEMP              0 ****  ****    0 ROOT
