@<TRIPOS>MOLECULE
6PU
   69    73     1     0     0
SMALL
bcc


@<TRIPOS>ATOM
      1 N1           3.4840     0.2340     0.8430 n3         1 6PU      -0.724600
      2 N3          -6.0850    -0.8780    -0.1560 n3         1 6PU      -0.718500
      3 C4           2.7040     0.9050     1.8670 c5         1 6PU       0.162800
      4 C5           1.8810     1.9440     1.0890 c5         1 6PU      -0.014400
      5 C6           0.4680     1.4920     0.8340 ca         1 6PU      -0.099300
      6 C7          -0.6240     2.2380     1.2700 ca         1 6PU      -0.097500
      7 C8          -1.9260     1.8300     1.0320 ca         1 6PU      -0.172500
      8 C10         -1.1000    -0.1290    -0.0620 ca         1 6PU      -0.172500
      9 C13         -5.8620     0.2120     0.7920 c6         1 6PU       0.186300
     10 C15         -3.7490    -0.8230    -0.8250 c6         1 6PU       0.196300
     11 C17          4.4870    -0.6800     1.3670 c5         1 6PU       0.241800
     12 C20          4.7470    -2.5170    -0.1410 ca         1 6PU      -0.043300
     13 C21          5.3100    -3.2570    -1.1680 ca         1 6PU      -0.138000
     14 C22          6.4470    -2.7680    -1.8030 ca         1 6PU      -0.097000
     15 C24          6.4270    -0.8440    -0.3910 ca         1 6PU       0.150900
     16 F            6.9880     0.3170    -0.0080 f          1 6PU      -0.146900
     17 C23          7.0180    -1.5620    -1.4170 ca         1 6PU      -0.177000
     18 C25          5.2900    -1.2930     0.2450 ca         1 6PU      -0.137300
     19 C19          3.5740    -2.8470     0.7390 c5         1 6PU      -0.031100
     20 C18          3.8100    -1.9340     1.9480 c5         1 6PU      -0.073400
     21 C3           3.9700     1.3240     0.0240 c5         1 6PU       0.158800
     22 C2           2.7130     2.1650    -0.2080 c5         1 6PU       0.173500
     23 N            2.9980     3.5640    -0.4650 n3         1 6PU      -0.708600
     24 C1           3.9350     3.7320    -1.5600 c3         1 6PU       0.147600
     25 C            1.7840     4.3050    -0.7410 c3         1 6PU       0.147600
     26 C11          0.2000     0.3010     0.1660 ca         1 6PU      -0.097500
     27 C9          -2.1930     0.6340     0.3580 ca         1 6PU       0.141600
     28 N2          -3.5200     0.2650     0.0990 nh         1 6PU      -0.652000
     29 C14         -5.1880    -0.8100    -1.3070 c6         1 6PU       0.186300
     30 O1          -8.2990    -1.4770     0.8520 o          1 6PU      -0.600800
     31 C16         -8.4300     0.0450    -1.2820 c3         1 6PU      -0.271300
     32 O           -7.6200    -2.4510    -1.3560 o          1 6PU      -0.600800
     33 C12         -4.4150     0.1880     1.2420 c6         1 6PU       0.196300
     34 H2           2.0740     0.2120     2.4250 h1         1 6PU       0.040700
     35 H3           3.3600     1.4120     2.5960 h1         1 6PU       0.040700
     36 H4           1.8570     2.8760     1.6600 hc         1 6PU       0.069700
     37 H5          -0.4590     3.1720     1.7970 ha         1 6PU       0.138500
     38 H6          -2.7430     2.4620     1.3570 ha         1 6PU       0.131000
     39 H7          -1.2460    -1.0750    -0.5680 ha         1 6PU       0.131000
     40 H8          -6.0880     1.1850     0.3390 h1         1 6PU       0.061200
     41 H9          -6.5020     0.0830     1.6630 h1         1 6PU       0.061200
     42 H10         -3.1130    -0.7000    -1.7020 h1         1 6PU       0.051450
     43 H11         -3.5210    -1.8050    -0.3850 h1         1 6PU       0.051450
     44 H12          5.1270    -0.1780     2.1120 h1         1 6PU       0.045700
     45 H13          4.8880    -4.2100    -1.4620 ha         1 6PU       0.138000
     46 H14          6.9090    -3.3380    -2.5990 ha         1 6PU       0.134000
     47 H15          7.9130    -1.1890    -1.8970 ha         1 6PU       0.149000
     48 H16          2.6350    -2.5990     0.2370 hc         1 6PU       0.059200
     49 H17          3.5290    -3.9030     1.0060 hc         1 6PU       0.059200
     50 H18          4.5030    -2.4180     2.6400 hc         1 6PU       0.051700
     51 H19          2.8990    -1.7120     2.5010 hc         1 6PU       0.051700
     52 H20          4.7310     1.9310     0.5440 h1         1 6PU       0.049700
     53 H21          4.4010     0.9620    -0.9100 h1         1 6PU       0.049700
     54 H22          2.1650     1.7240    -1.0590 h1         1 6PU       0.039700
     55 H24          3.5840     3.2890    -2.5050 h1         1 6PU       0.031533
     56 H25          4.1020     4.7950    -1.7370 h1         1 6PU       0.031533
     57 H26          4.9010     3.2900    -1.3200 h1         1 6PU       0.031533
     58 H27          1.0940     4.2480     0.1000 h1         1 6PU       0.031533
     59 H28          2.0210     5.3580    -0.9000 h1         1 6PU       0.031533
     60 H29          1.2510     3.9420    -1.6340 h1         1 6PU       0.031533
     61 H30          1.0240    -0.3200    -0.1680 ha         1 6PU       0.138500
     62 H31         -5.3440    -1.6710    -1.9530 h1         1 6PU       0.061200
     63 H32         -5.3610     0.1000    -1.8960 h1         1 6PU       0.061200
     64 H33         -7.8910     0.2680    -2.2010 h1         1 6PU       0.100700
     65 H34         -9.4500    -0.2520    -1.5200 h1         1 6PU       0.100700
     66 H35         -8.4470     0.9180    -0.6340 h1         1 6PU       0.100700
     67 H36         -4.2590     1.0370     1.9050 h1         1 6PU       0.051450
     68 H37         -4.2330    -0.7240     1.8290 h1         1 6PU       0.051450
     69 S           -7.6530    -1.3190    -0.4420 s6         1 6PU       1.225900
@<TRIPOS>BOND
     1     1     3 1   
     2     1    11 1   
     3     1    21 1   
     4     2     9 1   
     5     2    29 1   
     6     2    69 1   
     7     3     4 1   
     8     3    34 1   
     9     3    35 1   
    10     4     5 1   
    11     4    22 1   
    12     4    36 1   
    13     5     6 ar  
    14     5    26 ar  
    15     6     7 ar  
    16     6    37 1   
    17     7    27 ar  
    18     7    38 1   
    19     8    26 ar  
    20     8    27 ar  
    21     8    39 1   
    22     9    33 1   
    23     9    40 1   
    24     9    41 1   
    25    10    28 1   
    26    10    29 1   
    27    10    42 1   
    28    10    43 1   
    29    11    18 1   
    30    11    20 1   
    31    11    44 1   
    32    12    13 ar  
    33    12    18 ar  
    34    12    19 1   
    35    13    14 ar  
    36    13    45 1   
    37    14    17 ar  
    38    14    46 1   
    39    15    16 1   
    40    15    17 ar  
    41    15    18 ar  
    42    17    47 1   
    43    19    20 1   
    44    19    48 1   
    45    19    49 1   
    46    20    50 1   
    47    20    51 1   
    48    21    22 1   
    49    21    52 1   
    50    21    53 1   
    51    22    23 1   
    52    22    54 1   
    53    23    24 1   
    54    23    25 1   
    55    24    55 1   
    56    24    56 1   
    57    24    57 1   
    58    25    58 1   
    59    25    59 1   
    60    25    60 1   
    61    26    61 1   
    62    27    28 1   
    63    28    33 1   
    64    29    62 1   
    65    29    63 1   
    66    30    69 2   
    67    31    64 1   
    68    31    65 1   
    69    31    66 1   
    70    31    69 1   
    71    32    69 2   
    72    33    67 1   
    73    33    68 1   
@<TRIPOS>SUBSTRUCTURE
     1 6PU         1 TEMP              0 ****  ****    0 ROOT
