@<TRIPOS>MOLECULE
6PU
   69    73     1     0     0
SMALL
No Charge or Current Charge


@<TRIPOS>ATOM
      1 N1           3.4740     0.0900     0.7400 n3         1 6PU      -0.724600
      2 N3          -6.3850    -0.8860    -0.1530 n3         1 6PU      -0.718500
      3 C4           2.6480     0.7210     1.8070 c5         1 6PU       0.162800
      4 C5           1.8640     1.8510     1.0530 c5         1 6PU      -0.014400
      5 C6           0.4260     1.3620     0.8050 ca         1 6PU      -0.099300
      6 C7          -0.6600     2.1460     1.2430 ca         1 6PU      -0.079500
      7 C8          -1.9830     1.7230     1.0310 ca         1 6PU      -0.154500
      8 C10         -1.1740    -0.2800    -0.0570 ca         1 6PU      -0.154500
      9 C13         -6.0300     0.0880     0.9200 c6         1 6PU       0.186300
     10 C15         -3.9710    -0.8200    -0.9430 c6         1 6PU       0.196300
     11 C17          4.6400    -0.6310     1.3540 c5         1 6PU       0.241800
     12 C20          5.2100    -2.5260    -0.0120 ca         1 6PU      -0.043300
     13 C21          5.9370    -3.2580    -0.9640 ca         1 6PU      -0.120000
     14 C22          7.0460    -2.6560    -1.5900 ca         1 6PU      -0.079000
     15 C24          6.6750    -0.6220    -0.2920 ca         1 6PU       0.186000
     16 F            7.0480     0.6320     0.0480 f          1 6PU      -0.182000
     17 C23          7.4180    -1.3390    -1.2480 ca         1 6PU      -0.159000
     18 C25          5.5580    -1.2260     0.3080 ca         1 6PU      -0.137300
     19 C19          4.0260    -3.0040     0.7860 c5         1 6PU      -0.031100
     20 C18          4.0750    -1.9750     1.9790 c5         1 6PU      -0.073400
     21 C3           3.9560     1.2680    -0.0210 c5         1 6PU       0.158800
     22 C2           2.5990     1.9720    -0.3370 c5         1 6PU       0.173500
     23 N            2.8370     3.4280    -0.6640 n3         1 6PU      -0.708600
     24 C1           3.7530     3.6560    -1.8090 c3         1 6PU       0.147600
     25 C            1.5940     4.2220    -0.8330 c3         1 6PU       0.147600
     26 C11          0.1510     0.1400     0.1540 ca         1 6PU      -0.079500
     27 C9          -2.2560     0.5070     0.3800 ca         1 6PU       0.280000
     28 N2          -3.5970     0.1020     0.1770 nh         1 6PU      -0.790400
     29 C14         -5.4800    -0.7130    -1.3270 c6         1 6PU       0.186300
     30 O1          -8.7660    -1.1760     0.7450 o          1 6PU      -0.530000
     31 C16         -8.4890     0.6110    -1.2040 c3         1 6PU      -0.382100
     32 O           -8.1970    -2.0050    -1.5760 o          1 6PU      -0.530000
     33 C12         -4.5310    -0.0040     1.3430 c6         1 6PU       0.196300
     34 H2           1.9740     0.0100     2.3040 h1         1 6PU       0.040700
     35 H3           3.2800     1.1710     2.5860 h1         1 6PU       0.040700
     36 H4           1.9040     2.7770     1.6380 hc         1 6PU       0.069700
     37 H5          -0.4790     3.0920     1.7490 ha         1 6PU       0.120500
     38 H6          -2.8020     2.3530     1.3650 ha         1 6PU       0.113000
     39 H7          -1.3500    -1.2300    -0.5530 ha         1 6PU       0.113000
     40 H8          -6.2280     1.1170     0.5840 h1         1 6PU       0.061200
     41 H9          -6.6440    -0.0790     1.8170 h1         1 6PU       0.061200
     42 H10         -3.3720    -0.5950    -1.8380 h1         1 6PU       0.051450
     43 H11         -3.7560    -1.8600    -0.6560 h1         1 6PU       0.051450
     44 H12          5.1860    -0.0210     2.0880 h1         1 6PU       0.045700
     45 H13          5.6520    -4.2790    -1.2100 ha         1 6PU       0.120000
     46 H14          7.6220    -3.2110    -2.3280 ha         1 6PU       0.116000
     47 H15          8.2810    -0.8750    -1.7190 ha         1 6PU       0.131000
     48 H16          3.0950    -2.9180     0.2140 hc         1 6PU       0.059200
     49 H17          4.1220    -4.0410     1.1250 hc         1 6PU       0.059200
     50 H18          4.7720    -2.3350     2.7440 hc         1 6PU       0.051700
     51 H19          3.1080    -1.8750     2.4800 hc         1 6PU       0.051700
     52 H20          4.6140     1.9100     0.5840 h1         1 6PU       0.049700
     53 H21          4.4870     0.9880    -0.9400 h1         1 6PU       0.049700
     54 H22          2.0680     1.4490    -1.1450 h1         1 6PU       0.039700
     55 H24          3.3450     3.2150    -2.7280 h1         1 6PU       0.031533
     56 H25          3.9010     4.7300    -1.9810 h1         1 6PU       0.031533
     57 H26          4.7420     3.2160    -1.6250 h1         1 6PU       0.031533
     58 H27          0.9780     4.2050     0.0730 h1         1 6PU       0.031533
     59 H28          1.8300     5.2730    -1.0460 h1         1 6PU       0.031533
     60 H29          0.9930     3.8310    -1.6650 h1         1 6PU       0.031533
     61 H30          0.9660    -0.4930    -0.1900 ha         1 6PU       0.120500
     62 H31         -5.6870    -1.4740    -2.0940 h1         1 6PU       0.061200
     63 H32         -5.6450     0.2680    -1.7960 h1         1 6PU       0.061200
     64 H33         -7.8820     0.7740    -2.0990 h1         1 6PU       0.100700
     65 H34         -9.5550     0.5820    -1.4540 h1         1 6PU       0.100700
     66 H35         -8.2890     1.3670    -0.4380 h1         1 6PU       0.100700
     67 H36         -4.3320     0.7870     2.0800 h1         1 6PU       0.051450
     68 H37         -4.3710    -0.9650     1.8540 h1         1 6PU       0.051450
     69 S           -8.0620    -0.9880    -0.5280 s6         1 6PU       1.195100
@<TRIPOS>BOND
     1     1     3 1   
     2     1    11 1   
     3     1    21 1   
     4     2     9 1   
     5     2    29 1   
     6     2    69 1   
     7     3     4 1   
     8     3    34 1   
     9     3    35 1   
    10     4     5 1   
    11     4    22 1   
    12     4    36 1   
    13     5     6 ar  
    14     5    26 ar  
    15     6     7 ar  
    16     6    37 1   
    17     7    27 ar  
    18     7    38 1   
    19     8    26 ar  
    20     8    27 ar  
    21     8    39 1   
    22     9    33 1   
    23     9    40 1   
    24     9    41 1   
    25    10    28 1   
    26    10    29 1   
    27    10    42 1   
    28    10    43 1   
    29    11    18 1   
    30    11    20 1   
    31    11    44 1   
    32    12    13 ar  
    33    12    18 ar  
    34    12    19 1   
    35    13    14 ar  
    36    13    45 1   
    37    14    17 ar  
    38    14    46 1   
    39    15    16 1   
    40    15    17 ar  
    41    15    18 ar  
    42    17    47 1   
    43    19    20 1   
    44    19    48 1   
    45    19    49 1   
    46    20    50 1   
    47    20    51 1   
    48    21    22 1   
    49    21    52 1   
    50    21    53 1   
    51    22    23 1   
    52    22    54 1   
    53    23    24 1   
    54    23    25 1   
    55    24    55 1   
    56    24    56 1   
    57    24    57 1   
    58    25    58 1   
    59    25    59 1   
    60    25    60 1   
    61    26    61 1   
    62    27    28 1   
    63    28    33 1   
    64    29    62 1   
    65    29    63 1   
    66    30    69 2   
    67    31    64 1   
    68    31    65 1   
    69    31    66 1   
    70    31    69 1   
    71    32    69 2   
    72    33    67 1   
    73    33    68 1   
@<TRIPOS>SUBSTRUCTURE
     1 6PU         1 TEMP              0 ****  ****    0 ROOT
