@<TRIPOS>MOLECULE
6PV
   76    80     1     0     0
SMALL
No Charge or Current Charge


@<TRIPOS>ATOM
      1 C1          -4.8630     0.0690    -0.0210 ca         1 6PV       0.426900
      2 C2          -2.7010     0.7880     0.1440 ca         1 6PV       0.415300
      3 C3          -2.2790    -0.5180     0.5060 cp         1 6PV      -0.226000
      4 O1           3.5290    -2.7240     2.7060 o          1 6PV      -0.610100
      5 O2           6.0900    -0.4780    -0.8830 o          1 6PV      -0.589100
      6 O3          -1.7410     1.7740     0.0980 os         1 6PV      -0.453300
      7 C11          5.7090    -1.8340     1.1000 c3         1 6PV       0.019000
      8 C12          6.5800    -1.1630     0.0120 c          1 6PV       0.596100
      9 C13          9.0770    -1.0100    -0.5990 ca         1 6PV      -0.025000
     10 C14          9.0040    -0.1900    -1.7480 ca         1 6PV      -0.147000
     11 C15         10.1740     0.1680    -2.4410 ca         1 6PV      -0.083500
     12 C16         11.4260    -0.2860    -1.9960 ca         1 6PV      -0.133000
     13 C17         11.5080    -1.1000    -0.8550 ca         1 6PV      -0.083500
     14 C18         10.3390    -1.4590    -0.1630 ca         1 6PV      -0.147000
     15 C19         -3.3060    -1.4860     0.5920 ca         1 6PV       0.174900
     16 C20         -2.0880     3.1500    -0.1390 c3         1 6PV       0.175600
     17 C21         -0.7880     4.0040    -0.1340 c6         1 6PV      -0.068700
     18 C22         -1.0830     5.4890    -0.4810 c6         1 6PV      -0.072400
     19 C23          0.2080     6.3440    -0.4420 c6         1 6PV       0.160800
     20 C24          1.2300     4.8260     1.2150 c6         1 6PV       0.160800
     21 C25         -0.0300     3.9260     1.2230 c6         1 6PV      -0.072400
     22 C26         -7.3840    -0.2540    -0.3860 ca         1 6PV       0.348000
     23 C27         -8.5710     0.4500    -0.1350 ca         1 6PV      -0.206000
     24 C28         -9.8180    -0.1860    -0.2480 ca         1 6PV      -0.045000
     25 C29         -9.8810    -1.5370    -0.6260 ca         1 6PV      -0.228000
     26 C30         -8.6930    -2.2480    -0.8970 ca         1 6PV       0.166100
     27 N1          -4.5930    -1.1970     0.3320 nb         1 6PV      -0.249000
     28 N2          -3.9920     1.0780    -0.1150 nb         1 6PV      -0.345000
     29 C4          -0.8590    -0.8810     0.8070 cp         1 6PV       0.024000
     30 C5          -0.5470    -1.7030     1.9140 ca         1 6PV      -0.110500
     31 C6           0.7800    -2.0600     2.2070 ca         1 6PV      -0.070500
     32 C7           1.8460    -1.6110     1.3960 ca         1 6PV      -0.151600
     33 C8           1.5420    -0.7970     0.2780 ca         1 6PV      -0.070500
     34 C9           0.2120    -0.4450    -0.0080 ca         1 6PV      -0.110500
     35 C10          3.2660    -2.0150     1.7430 c          1 6PV       0.617700
     36 N3           4.2660    -1.5460     0.9210 ns         1 6PV      -0.498900
     37 N4           7.9390    -1.4150     0.1550 ns         1 6PV      -0.140000
     38 N5           0.8900     6.2280     0.8680 n7         1 6PV      -0.863400
     39 N6          -6.1750     0.4340    -0.2700 nu         1 6PV      -0.923900
     40 O4          -8.6930    -3.5710    -1.2860 os         1 6PV      -0.339100
     41 C31         -9.9080    -4.3260    -1.4390 c3         1 6PV       0.148900
     42 C32         -7.4540    -1.6010    -0.7790 ca         1 6PV      -0.174000
     43 H1           5.8760    -2.9180     1.0570 h1         1 6PV       0.069200
     44 H2           6.0380    -1.4670     2.0810 h1         1 6PV       0.069200
     45 H3           8.0560     0.1800    -2.1230 ha         1 6PV       0.127500
     46 H4          10.1100     0.7990    -3.3250 ha         1 6PV       0.115000
     47 H5          12.3300    -0.0080    -2.5330 ha         1 6PV       0.117000
     48 H6          12.4770    -1.4540    -0.5080 ha         1 6PV       0.115000
     49 H7          10.4170    -2.0910     0.7200 ha         1 6PV       0.127500
     50 H8          -3.0880    -2.5170     0.8670 h4         1 6PV       0.030100
     51 H9          -2.5830     3.2610    -1.1140 h1         1 6PV       0.052700
     52 H10         -2.7680     3.5220     0.6390 h1         1 6PV       0.052700
     53 H11         -0.1420     3.5880    -0.9200 hc         1 6PV       0.055700
     54 H12         -1.5390     5.5610    -1.4780 hc         1 6PV       0.051700
     55 H13         -1.8140     5.9020     0.2280 hc         1 6PV       0.051700
     56 H14          0.8900     6.0120    -1.2400 h1         1 6PV       0.030200
     57 H15         -0.0410     7.3980    -0.6340 h1         1 6PV       0.030200
     58 H16          1.7090     4.7990     2.2040 h1         1 6PV       0.030200
     59 H17          1.9540     4.4350     0.4840 h1         1 6PV       0.030200
     60 H18         -0.6940     4.2350     2.0420 hc         1 6PV       0.051700
     61 H19          0.2680     2.8910     1.4360 hc         1 6PV       0.051700
     62 H20         -8.5320     1.4960     0.1590 ha         1 6PV       0.113000
     63 H21        -10.7330     0.3670    -0.0440 ha         1 6PV       0.111000
     64 H22        -10.8550    -2.0090    -0.7080 ha         1 6PV       0.119000
     65 H23         -1.3440    -2.0590     2.5620 ha         1 6PV       0.120500
     66 H24          0.9760    -2.6890     3.0730 ha         1 6PV       0.125000
     67 H25          2.3210    -0.4290    -0.3840 ha         1 6PV       0.125000
     68 H26          0.0080     0.1690    -0.8810 ha         1 6PV       0.120500
     69 H27          3.9880    -0.9630     0.1400 hn         1 6PV       0.345500
     70 H28          8.1670    -2.0000     0.9480 hn         1 6PV       0.154000
     71 H29          1.7570     6.7810     0.8410 hn         1 6PV       0.411000
     72 H31         -6.2830     1.4460    -0.3000 hn         1 6PV       0.510000
     73 H32         -9.6810    -5.3530    -1.7530 h1         1 6PV       0.040367
     74 H33        -10.4590    -4.3750    -0.4910 h1         1 6PV       0.040367
     75 H34        -10.5550    -3.8730    -2.2010 h1         1 6PV       0.040367
     76 H35         -6.5540    -2.1550    -1.0160 ha         1 6PV       0.164000
@<TRIPOS>BOND
     1     1    27 ar  
     2     1    28 ar  
     3     1    39 1   
     4     2     3 ar  
     5     2     6 1   
     6     2    28 ar  
     7     3    15 ar  
     8     3    29 1   
     9     4    35 2   
    10     5     8 2   
    11     6    16 1   
    12     7     8 1   
    13     7    36 1   
    14     7    43 1   
    15     7    44 1   
    16     8    37 1   
    17     9    10 ar  
    18     9    14 ar  
    19     9    37 1   
    20    10    11 ar  
    21    10    45 1   
    22    11    12 ar  
    23    11    46 1   
    24    12    13 ar  
    25    12    47 1   
    26    13    14 ar  
    27    13    48 1   
    28    14    49 1   
    29    15    27 ar  
    30    15    50 1   
    31    16    17 1   
    32    16    51 1   
    33    16    52 1   
    34    17    18 1   
    35    17    21 1   
    36    17    53 1   
    37    18    19 1   
    38    18    54 1   
    39    18    55 1   
    40    19    38 1   
    41    19    56 1   
    42    19    57 1   
    43    20    21 1   
    44    20    38 1   
    45    20    58 1   
    46    20    59 1   
    47    21    60 1   
    48    21    61 1   
    49    22    23 ar  
    50    22    39 1   
    51    22    42 ar  
    52    23    24 ar  
    53    23    62 1   
    54    24    25 ar  
    55    24    63 1   
    56    25    26 ar  
    57    25    64 1   
    58    26    40 1   
    59    26    42 ar  
    60    29    30 ar  
    61    29    34 ar  
    62    30    31 ar  
    63    30    65 1   
    64    31    32 ar  
    65    31    66 1   
    66    32    33 ar  
    67    32    35 1   
    68    33    34 ar  
    69    33    67 1   
    70    34    68 1   
    71    35    36 1   
    72    36    69 1   
    73    37    70 1   
    74    38    71 1   
    75    39    72 1   
    76    40    41 1   
    77    41    73 1   
    78    41    74 1   
    79    41    75 1   
    80    42    76 1   
@<TRIPOS>SUBSTRUCTURE
     1 6PV         1 TEMP              0 ****  ****    0 ROOT
