@<TRIPOS>MOLECULE
6PV
   76    80     1     0     0
SMALL
abcg2


@<TRIPOS>ATOM
      1 C1          -4.6560     0.1430    -0.1970 ca         1 6PV       0.426900
      2 C2          -2.5780     0.9720     0.1740 ca         1 6PV       0.415300
      3 C3          -2.0740    -0.3290     0.4030 cp         1 6PV      -0.226000
      4 O1           3.6150    -2.1370     2.8900 o          1 6PV      -0.610100
      5 O2           6.0170    -1.1000    -1.1570 o          1 6PV      -0.589100
      6 O3          -1.7390     1.9810     0.2810 os         1 6PV      -0.453300
      7 C11          5.6950    -1.8270     1.1040 c3         1 6PV       0.019000
      8 C12          6.5280    -1.4760    -0.1180 c          1 6PV       0.596100
      9 C13          8.9190    -1.4390    -0.8030 ca         1 6PV      -0.025000
     10 C14          8.7790    -0.9980    -2.1190 ca         1 6PV      -0.147000
     11 C15          9.9090    -0.8330    -2.9100 ca         1 6PV      -0.083500
     12 C16         11.1790    -1.0980    -2.4190 ca         1 6PV      -0.133000
     13 C17         11.3140    -1.5380    -1.1080 ca         1 6PV      -0.083500
     14 C18         10.1980    -1.7080    -0.3080 ca         1 6PV      -0.147000
     15 C19         -3.0230    -1.3240     0.2940 ca         1 6PV       0.174900
     16 C20         -2.1970     3.3140     0.0400 c3         1 6PV       0.175600
     17 C21         -1.0190     4.2500     0.2150 c6         1 6PV      -0.068700
     18 C22         -1.4360     5.6750    -0.1460 c6         1 6PV      -0.072400
     19 C23         -0.2840     6.6460     0.0710 c6         1 6PV       0.160800
     20 C24          0.6740     5.2460     1.7730 c6         1 6PV       0.160800
     21 C25         -0.4400     4.2200     1.6290 c6         1 6PV      -0.072400
     22 C26         -7.0770    -0.3130    -0.6780 ca         1 6PV       0.348000
     23 C27         -8.2670     0.3820    -0.9440 ca         1 6PV      -0.206000
     24 C28         -9.4400    -0.3170    -1.1370 ca         1 6PV      -0.045000
     25 C29         -9.4810    -1.7070    -1.0770 ca         1 6PV      -0.228000
     26 C30         -8.2990    -2.3910    -0.8150 ca         1 6PV       0.166100
     27 N1          -4.3030    -1.1180    -0.0030 nb         1 6PV      -0.249000
     28 N2          -3.8360     1.1980    -0.1180 nb         1 6PV      -0.345000
     29 C4          -0.6750    -0.6280     0.7450 cp         1 6PV       0.024000
     30 C5          -0.3910    -1.5370     1.7660 ca         1 6PV      -0.110500
     31 C6           0.9150    -1.8680     2.0850 ca         1 6PV      -0.070500
     32 C7           1.9780    -1.3080     1.3830 ca         1 6PV      -0.151600
     33 C8           1.7010    -0.3940     0.3690 ca         1 6PV      -0.070500
     34 C9           0.3960    -0.0560     0.0560 ca         1 6PV      -0.110500
     35 C10          3.3670    -1.6890     1.7780 c          1 6PV       0.617700
     36 N3           4.3180    -1.5180     0.8480 ns         1 6PV      -0.498900
     37 N4           7.8530    -1.6360     0.0830 ns         1 6PV      -0.140000
     38 N5           0.1790     6.5710     1.4440 n7         1 6PV      -0.863400
     39 N6          -5.9400     0.4670    -0.5040 nu         1 6PV      -0.923900
     40 O4          -8.2050    -3.7330    -0.7340 os         1 6PV      -0.339100
     41 C31         -9.3710    -4.5040    -0.9450 c3         1 6PV       0.148900
     42 C32         -7.1000    -1.7020    -0.6140 ca         1 6PV      -0.174000
     43 H1           5.8340    -2.8900     1.3290 h1         1 6PV       0.069200
     44 H2           6.0660    -1.2730     1.9700 h1         1 6PV       0.069200
     45 H3           7.8090    -0.7790    -2.5350 ha         1 6PV       0.127500
     46 H4           9.7850    -0.4900    -3.9290 ha         1 6PV       0.115000
     47 H5          12.0500    -0.9640    -3.0460 ha         1 6PV       0.117000
     48 H6          12.2940    -1.7500    -0.7010 ha         1 6PV       0.115000
     49 H7          10.3180    -2.0500     0.7130 ha         1 6PV       0.127500
     50 H8          -2.7320    -2.3600     0.4380 h4         1 6PV       0.030100
     51 H9          -2.6030     3.3890    -0.9730 h1         1 6PV       0.052700
     52 H10         -2.9990     3.5650     0.7410 h1         1 6PV       0.052700
     53 H11         -0.2290     3.9450    -0.4840 hc         1 6PV       0.055700
     54 H12         -1.7620     5.7240    -1.1880 hc         1 6PV       0.051700
     55 H13         -2.2870     5.9820     0.4710 hc         1 6PV       0.051700
     56 H14          0.5110     6.4180    -0.6580 h1         1 6PV       0.030200
     57 H15         -0.6160     7.6660    -0.1350 h1         1 6PV       0.030200
     58 H16          1.0450     5.2530     2.8000 h1         1 6PV       0.030200
     59 H17          1.5180     4.9390     1.1320 h1         1 6PV       0.030200
     60 H18         -1.2310     4.4370     2.3550 hc         1 6PV       0.051700
     61 H19         -0.0510     3.2280     1.8670 hc         1 6PV       0.051700
     62 H20         -8.2650     1.4640    -0.9940 ha         1 6PV       0.113000
     63 H21        -10.3520     0.2290    -1.3420 ha         1 6PV       0.111000
     64 H22        -10.4190    -2.2210    -1.2340 ha         1 6PV       0.119000
     65 H23         -1.2000    -1.9780     2.3340 ha         1 6PV       0.120500
     66 H24          1.1050    -2.5670     2.8890 ha         1 6PV       0.125000
     67 H25          2.4970     0.0880    -0.1840 ha         1 6PV       0.125000
     68 H26          0.2180     0.6530    -0.7410 ha         1 6PV       0.120500
     69 H27          4.0820    -1.2510    -0.0960 hn         1 6PV       0.345500
     70 H28          8.1270    -1.9470     1.0040 hn         1 6PV       0.154000
     71 H29          0.9120     7.2520     1.5910 hn         1 6PV       0.411000
     72 H31         -6.0810     1.4600    -0.6140 hn         1 6PV       0.510000
     73 H32         -9.0720    -5.5450    -0.8550 h1         1 6PV       0.040367
     74 H33        -10.1410    -4.2930    -0.1990 h1         1 6PV       0.040367
     75 H34         -9.7930    -4.3440    -1.9410 h1         1 6PV       0.040367
     76 H35         -6.2000    -2.2590    -0.4090 ha         1 6PV       0.164000
@<TRIPOS>BOND
     1     1    27 ar  
     2     1    28 ar  
     3     1    39 1   
     4     2     3 ar  
     5     2     6 1   
     6     2    28 ar  
     7     3    15 ar  
     8     3    29 1   
     9     4    35 2   
    10     5     8 2   
    11     6    16 1   
    12     7     8 1   
    13     7    36 1   
    14     7    43 1   
    15     7    44 1   
    16     8    37 1   
    17     9    10 ar  
    18     9    14 ar  
    19     9    37 1   
    20    10    11 ar  
    21    10    45 1   
    22    11    12 ar  
    23    11    46 1   
    24    12    13 ar  
    25    12    47 1   
    26    13    14 ar  
    27    13    48 1   
    28    14    49 1   
    29    15    27 ar  
    30    15    50 1   
    31    16    17 1   
    32    16    51 1   
    33    16    52 1   
    34    17    18 1   
    35    17    21 1   
    36    17    53 1   
    37    18    19 1   
    38    18    54 1   
    39    18    55 1   
    40    19    38 1   
    41    19    56 1   
    42    19    57 1   
    43    20    21 1   
    44    20    38 1   
    45    20    58 1   
    46    20    59 1   
    47    21    60 1   
    48    21    61 1   
    49    22    23 ar  
    50    22    39 1   
    51    22    42 ar  
    52    23    24 ar  
    53    23    62 1   
    54    24    25 ar  
    55    24    63 1   
    56    25    26 ar  
    57    25    64 1   
    58    26    40 1   
    59    26    42 ar  
    60    29    30 ar  
    61    29    34 ar  
    62    30    31 ar  
    63    30    65 1   
    64    31    32 ar  
    65    31    66 1   
    66    32    33 ar  
    67    32    35 1   
    68    33    34 ar  
    69    33    67 1   
    70    34    68 1   
    71    35    36 1   
    72    36    69 1   
    73    37    70 1   
    74    38    71 1   
    75    39    72 1   
    76    40    41 1   
    77    41    73 1   
    78    41    74 1   
    79    41    75 1   
    80    42    76 1   
@<TRIPOS>SUBSTRUCTURE
     1 6PV         1 TEMP              0 ****  ****    0 ROOT
