@<TRIPOS>MOLECULE
6PW
   63    66     1     0     0
SMALL
bcc


@<TRIPOS>ATOM
      1 O1           6.6740     0.4710    -0.0560 os         1 6PW      -0.391600
      2 C7          -6.9880    -1.5320     0.5190 ca         1 6PW      -0.113000
      3 O2           7.5190     0.3280     2.6120 oh         1 6PW      -0.583800
      4 C6          -7.6370    -0.9310    -0.5770 ca         1 6PW      -0.144000
      5 C1          -5.0220    -0.2010     0.1320 ca         1 6PW       0.462600
      6 N1          -1.8300     1.3310     0.2460 nh         1 6PW      -0.783300
      7 C5          -6.9880     0.0230    -1.3140 ca         1 6PW      -0.095000
      8 C4          -3.6680     1.6910    -1.3150 ca         1 6PW      -0.292300
      9 C3          -4.9340     1.3700    -1.6860 ca         1 6PW      -0.049000
     10 C2          -5.6750     0.3990    -0.9700 ca         1 6PW      -0.193300
     11 C17          1.9850    -0.1910    -1.0110 c          1 6PW       0.670100
     12 N2           3.1560    -0.2850    -0.3550 ns         1 6PW      -0.580900
     13 C18          4.3160    -0.9830    -0.8820 c6         1 6PW       0.122700
     14 C22          5.1280    -0.1020    -1.8350 c6         1 6PW      -0.132400
     15 C21          5.8440     0.9970    -1.0710 c6         1 6PW       0.132400
     16 C20          5.9570    -0.2680     0.9090 c6         1 6PW       0.143100
     17 C23          6.9330    -0.7670     1.9520 c3         1 6PW       0.144400
     18 C19          5.2160    -1.4380     0.2650 c6         1 6PW      -0.129400
     19 C14          0.8890     0.5510    -0.2680 c6         1 6PW      -0.131700
     20 C11         -0.0670    -0.3990     0.5060 c6         1 6PW      -0.060000
     21 C13         -0.7520    -1.4180    -0.4050 c3         1 6PW      -0.086100
     22 C12          0.6880    -1.1410     1.6080 c3         1 6PW      -0.086100
     23 C10         -1.1280     0.4860     1.1890 c6         1 6PW       0.222800
     24 C15          0.1270     1.4810    -1.2140 c6         1 6PW      -0.093400
     25 C16         -0.9370     2.2430    -0.4380 c6         1 6PW       0.220800
     26 C           -3.0900     1.0320    -0.1790 ca         1 6PW       0.711200
     27 C8          -5.7080    -1.1930     0.8880 ca         1 6PW      -0.132600
     28 C9          -5.0290    -1.8360     2.0580 c3         1 6PW      -0.032800
     29 N           -3.7670     0.1280     0.4960 nb         1 6PW      -0.772000
     30 H2           8.1030    -0.0150     3.2940 ho         1 6PW       0.404000
     31 H3          -8.6460    -1.2300    -0.8300 ha         1 6PW       0.131000
     32 H4          -7.4710     0.4960    -2.1610 ha         1 6PW       0.129000
     33 H5          -3.1190     2.4200    -1.8900 ha         1 6PW       0.138000
     34 H6          -5.3800     1.8540    -2.5460 ha         1 6PW       0.133000
     35 H7           3.2300     0.1620     0.5440 hn         1 6PW       0.311500
     36 H8           3.9580    -1.8620    -1.4190 h1         1 6PW       0.078700
     37 H9           5.8600    -0.7280    -2.3530 hc         1 6PW       0.064200
     38 H10          4.4810     0.3350    -2.5990 hc         1 6PW       0.064200
     39 H11          5.1120     1.6970    -0.6420 h1         1 6PW       0.046200
     40 H12          6.4860     1.5740    -1.7380 h1         1 6PW       0.046200
     41 H13          5.2310     0.3930     1.4150 h1         1 6PW       0.036700
     42 H14          7.6850    -1.4010     1.4610 h1         1 6PW       0.024700
     43 H15          6.3790    -1.4110     2.6470 h1         1 6PW       0.024700
     44 H16          4.6320    -1.9720     1.0180 hc         1 6PW       0.059200
     45 H17          5.9470    -2.1450    -0.1380 hc         1 6PW       0.059200
     46 H18          1.3630     1.1870     0.4910 hc         1 6PW       0.044700
     47 H19         -1.4550    -2.0220     0.1720 hc         1 6PW       0.040700
     48 H20         -1.3160    -0.9500    -1.2120 hc         1 6PW       0.040700
     49 H21         -0.0310    -2.0950    -0.8620 hc         1 6PW       0.040700
     50 H22          1.2320    -0.4510     2.2570 hc         1 6PW       0.040700
     51 H23         -0.0060    -1.7060     2.2330 hc         1 6PW       0.040700
     52 H24          1.4080    -1.8510     1.1980 hc         1 6PW       0.040700
     53 H25         -0.6330     1.1300     1.9260 h1         1 6PW       0.065200
     54 H26         -1.8430    -0.1370     1.7200 h1         1 6PW       0.065200
     55 H27          0.8170     2.1940    -1.6710 hc         1 6PW       0.064200
     56 H28         -0.3350     0.9180    -2.0270 hc         1 6PW       0.064200
     57 H29         -1.4810     2.9240    -1.0870 h1         1 6PW       0.051700
     58 H30         -0.4540     2.8710     0.3190 h1         1 6PW       0.051700
     59 H31         -4.0800    -2.2890     1.7690 hc         1 6PW       0.042367
     60 H32         -4.8000    -1.1050     2.8360 hc         1 6PW       0.042367
     61 H33         -5.6600    -2.6080     2.4970 hc         1 6PW       0.042367
     62 H1          -7.5190    -2.2860     1.0890 ha         1 6PW       0.128000
     63 O            1.8150    -0.6710    -2.1240 o          1 6PW      -0.603100
@<TRIPOS>BOND
     1     1    15 1   
     2     1    16 1   
     3     2     4 ar  
     4     2    27 ar  
     5     2    62 1   
     6     3    17 1   
     7     3    30 1   
     8     4     7 ar  
     9     4    31 1   
    10     5    10 ar  
    11     5    27 ar  
    12     5    29 ar  
    13     6    23 1   
    14     6    25 1   
    15     6    26 1   
    16     7    10 ar  
    17     7    32 1   
    18     8     9 ar  
    19     8    26 ar  
    20     8    33 1   
    21     9    10 ar  
    22     9    34 1   
    23    11    12 1   
    24    11    19 1   
    25    11    63 2   
    26    12    13 1   
    27    12    35 1   
    28    13    14 1   
    29    13    18 1   
    30    13    36 1   
    31    14    15 1   
    32    14    37 1   
    33    14    38 1   
    34    15    39 1   
    35    15    40 1   
    36    16    17 1   
    37    16    18 1   
    38    16    41 1   
    39    17    42 1   
    40    17    43 1   
    41    18    44 1   
    42    18    45 1   
    43    19    20 1   
    44    19    24 1   
    45    19    46 1   
    46    20    21 1   
    47    20    22 1   
    48    20    23 1   
    49    21    47 1   
    50    21    48 1   
    51    21    49 1   
    52    22    50 1   
    53    22    51 1   
    54    22    52 1   
    55    23    53 1   
    56    23    54 1   
    57    24    25 1   
    58    24    55 1   
    59    24    56 1   
    60    25    57 1   
    61    25    58 1   
    62    26    29 ar  
    63    27    28 1   
    64    28    59 1   
    65    28    60 1   
    66    28    61 1   
@<TRIPOS>SUBSTRUCTURE
     1 6PW         1 TEMP              0 ****  ****    0 ROOT
