@<TRIPOS>MOLECULE
6PW
   63    66     1     0     0
SMALL
No Charge or Current Charge


@<TRIPOS>ATOM
      1 O1           6.6690     1.0310    -0.1140 os         1 6PW      -0.438000
      2 C7          -7.5660    -0.7280     0.7030 ca         1 6PW      -0.095000
      3 O2           7.6840     1.1160     2.6190 oh         1 6PW      -0.706000
      4 C6          -7.9490    -0.3050    -0.5780 ca         1 6PW      -0.126000
      5 C1          -5.2670     0.0180     0.2850 ca         1 6PW       0.332000
      6 N1          -1.7900     0.8360     0.4000 nh         1 6PW      -0.783300
      7 C5          -7.0060     0.2780    -1.4350 ca         1 6PW      -0.077000
      8 C4          -3.4190     1.1660    -1.4210 ca         1 6PW      -0.209000
      9 C3          -4.7350     1.0210    -1.8740 ca         1 6PW      -0.031000
     10 C2          -5.6750     0.4390    -1.0080 ca         1 6PW      -0.128000
     11 C17          2.1490    -0.5490    -1.0190 c          1 6PW       0.603100
     12 N2           3.3650    -0.4580    -0.3780 ns         1 6PW      -0.513900
     13 C18          4.6520    -0.9130    -0.9180 c6         1 6PW       0.122700
     14 C22          5.2470     0.1370    -1.8910 c6         1 6PW      -0.132400
     15 C21          5.7210     1.4020    -1.1370 c6         1 6PW       0.155600
     16 C20          6.1270     0.1480     0.8970 c6         1 6PW       0.166300
     17 C23          7.2150    -0.0970     1.9960 c3         1 6PW       0.167600
     18 C19          5.6590    -1.1750     0.2310 c6         1 6PW      -0.129400
     19 C14          0.9390     0.0240    -0.2420 c6         1 6PW      -0.131700
     20 C11         -0.0840    -1.0310     0.3140 c6         1 6PW      -0.060000
     21 C13         -0.7880    -1.8310    -0.8320 c3         1 6PW      -0.086100
     22 C12          0.6430    -2.0800     1.2130 c3         1 6PW      -0.086100
     23 C10         -1.1590    -0.2790     1.1690 c6         1 6PW       0.222800
     24 C15          0.2700     1.2340    -0.9540 c6         1 6PW      -0.093400
     25 C16         -0.8270     1.8680    -0.0650 c6         1 6PW       0.220800
     26 C           -3.0880     0.7300    -0.1280 ca         1 6PW       0.645900
     27 C8          -6.2350    -0.5720     1.1410 ca         1 6PW      -0.067300
     28 C9          -5.8570    -1.0480     2.5440 c3         1 6PW      -0.032800
     29 N           -3.9860     0.1710     0.7010 nb         1 6PW      -0.772000
     30 H2           8.4120     0.8600     3.2320 ho         1 6PW       0.503000
     31 H3          -8.9780    -0.4300    -0.9070 ha         1 6PW       0.113000
     32 H4          -7.3100     0.6020    -2.4270 ha         1 6PW       0.111000
     33 H5          -2.6680     1.5970    -2.0740 ha         1 6PW       0.120000
     34 H6          -5.0150     1.3490    -2.8730 ha         1 6PW       0.115000
     35 H7           3.3520    -0.0460     0.5460 hn         1 6PW       0.311500
     36 H8           4.4800    -1.8550    -1.4620 h1         1 6PW       0.078700
     37 H9           6.0990    -0.3010    -2.4280 hc         1 6PW       0.064200
     38 H10          4.5100     0.4120    -2.6570 hc         1 6PW       0.064200
     39 H11          4.8680     1.9200    -0.6750 h1         1 6PW       0.046200
     40 H12          6.2050     2.0980    -1.8370 h1         1 6PW       0.046200
     41 H13          5.2690     0.6430     1.3750 h1         1 6PW       0.036700
     42 H14          8.0570    -0.6290     1.5320 h1         1 6PW       0.024700
     43 H15          6.7870    -0.7640     2.7560 h1         1 6PW       0.024700
     44 H16          5.2090    -1.8390     0.9810 hc         1 6PW       0.059200
     45 H17          6.5320    -1.7090    -0.1690 hc         1 6PW       0.059200
     46 H18          1.3880     0.4580     0.6630 hc         1 6PW       0.044700
     47 H19         -1.5580    -2.5010    -0.4320 hc         1 6PW       0.040700
     48 H20         -1.2810    -1.1690    -1.5530 hc         1 6PW       0.040700
     49 H21         -0.0800    -2.4540    -1.3910 hc         1 6PW       0.040700
     50 H22          1.1700    -1.5970     2.0450 hc         1 6PW       0.040700
     51 H23         -0.0670    -2.7940     1.6470 hc         1 6PW       0.040700
     52 H24          1.3830    -2.6590     0.6480 hc         1 6PW       0.040700
     53 H25         -0.6840     0.1290     2.0740 h1         1 6PW       0.065200
     54 H26         -1.9070    -1.0040     1.5230 h1         1 6PW       0.065200
     55 H27          1.0250     1.9940    -1.1980 hc         1 6PW       0.064200
     56 H28         -0.1670     0.9150    -1.9100 hc         1 6PW       0.064200
     57 H29         -1.3350     2.6750    -0.6130 h1         1 6PW       0.051700
     58 H30         -0.3530     2.3430     0.8070 h1         1 6PW       0.051700
     59 H31         -5.0740    -1.8140     2.5020 hc         1 6PW       0.042367
     60 H32         -5.4830    -0.2170     3.1540 hc         1 6PW       0.042367
     61 H33         -6.7140    -1.4830     3.0730 hc         1 6PW       0.042367
     62 H1          -8.3080    -1.1800     1.3580 ha         1 6PW       0.110000
     63 O            2.0450    -1.0340    -2.1370 o          1 6PW      -0.603100
@<TRIPOS>BOND
     1     1    15 1   
     2     1    16 1   
     3     2     4 ar  
     4     2    27 ar  
     5     2    62 1   
     6     3    17 1   
     7     3    30 1   
     8     4     7 ar  
     9     4    31 1   
    10     5    10 ar  
    11     5    27 ar  
    12     5    29 ar  
    13     6    23 1   
    14     6    25 1   
    15     6    26 1   
    16     7    10 ar  
    17     7    32 1   
    18     8     9 ar  
    19     8    26 ar  
    20     8    33 1   
    21     9    10 ar  
    22     9    34 1   
    23    11    12 1   
    24    11    19 1   
    25    11    63 2   
    26    12    13 1   
    27    12    35 1   
    28    13    14 1   
    29    13    18 1   
    30    13    36 1   
    31    14    15 1   
    32    14    37 1   
    33    14    38 1   
    34    15    39 1   
    35    15    40 1   
    36    16    17 1   
    37    16    18 1   
    38    16    41 1   
    39    17    42 1   
    40    17    43 1   
    41    18    44 1   
    42    18    45 1   
    43    19    20 1   
    44    19    24 1   
    45    19    46 1   
    46    20    21 1   
    47    20    22 1   
    48    20    23 1   
    49    21    47 1   
    50    21    48 1   
    51    21    49 1   
    52    22    50 1   
    53    22    51 1   
    54    22    52 1   
    55    23    53 1   
    56    23    54 1   
    57    24    25 1   
    58    24    55 1   
    59    24    56 1   
    60    25    57 1   
    61    25    58 1   
    62    26    29 ar  
    63    27    28 1   
    64    28    59 1   
    65    28    60 1   
    66    28    61 1   
@<TRIPOS>SUBSTRUCTURE
     1 6PW         1 TEMP              0 ****  ****    0 ROOT
