@<TRIPOS>MOLECULE
6PY
   56    56     1     0     0
SMALL
bcc


@<TRIPOS>ATOM
      1 N12         -2.6590    -2.1320     0.0280 nu         1 6PY      -0.900200
      2 C17          4.9120    -2.5370     3.4750 c3         1 6PY       0.124700
      3 C20          4.1230    -1.5850     0.0340 c3         1 6PY       0.113000
      4 C21          2.4730     0.0710    -0.6300 c          1 6PY       0.756100
      5 C28          0.6510    -2.5940    -3.1830 c3         1 6PY      -0.178100
      6 C01         -0.8270     1.0760    -0.5920 c6         1 6PY       0.127100
      7 C02         -1.0210    -0.4450    -0.5580 c6         1 6PY       0.056700
      8 C03         -2.4970    -0.7290    -0.2770 c6         1 6PY       0.281700
      9 C04         -2.9610     0.1760     0.8330 c2         1 6PY      -0.390200
     10 C05         -2.2640     1.2300     1.2590 ce         1 6PY       0.053900
     11 O06         -1.1100     1.6310     0.6760 os         1 6PY      -0.270900
     12 C07          0.5840     1.4870    -0.9850 c3         1 6PY       0.144100
     13 C08          0.8060     3.0060    -0.9140 c3         1 6PY       0.134100
     14 C09          2.1980     3.3860    -1.3970 c3         1 6PY       0.101400
     15 O10          2.3400     4.7810    -1.2790 oh         1 6PY      -0.581800
     16 O11          1.4930     0.8320    -0.1070 os         1 6PY      -0.413900
     17 O13         -0.1960     3.6710    -1.6450 oh         1 6PY      -0.558800
     18 C14         -3.8190    -2.8460    -0.0920 c2         1 6PY       0.823100
     19 N15         -4.8750    -2.1730    -0.6630 nv         1 6PY      -0.918800
     20 N16         -3.9560    -4.0850     0.2190 n2         1 6PY      -0.946100
     21 O18          4.1920    -2.3360     2.2860 os         1 6PY      -0.401600
     22 C19          4.9960    -1.8590     1.2360 c3         1 6PY       0.119400
     23 N22          3.1410    -0.5690     0.3420 ns         1 6PY      -0.543900
     24 O23          2.7300     0.0130    -1.8140 o          1 6PY      -0.627000
     25 N25         -0.5710    -1.0670    -1.7720 ns         1 6PY      -0.563900
     26 O26          0.7140    -2.6520    -0.7960 o          1 6PY      -0.624100
     27 C27          0.2690    -2.1230    -1.8040 c          1 6PY       0.681100
     28 C29         -2.6720     2.0850     2.4560 c          1 6PY       0.935800
     29 O30         -1.8800     2.9830     2.7800 o          1 6PY      -0.794800
     30 O31         -3.7570     1.7930     2.9900 o          1 6PY      -0.794800
     31 H1          -1.9540    -2.5430     0.6190 hn         1 6PY       0.431800
     32 H2           5.3670    -1.6090     3.8430 h1         1 6PY       0.027033
     33 H3           4.2190    -2.9050     4.2310 h1         1 6PY       0.027033
     34 H4           5.7120    -3.2760     3.3490 h1         1 6PY       0.027033
     35 H5           4.7630    -1.2380    -0.7760 h1         1 6PY       0.059200
     36 H6           3.6390    -2.5080    -0.3020 h1         1 6PY       0.059200
     37 H7           1.7130    -2.4000    -3.3330 hc         1 6PY       0.056033
     38 H8           0.4990    -3.6700    -3.2590 hc         1 6PY       0.056033
     39 H9           0.0970    -2.1060    -3.9820 hc         1 6PY       0.056033
     40 H10         -1.5180     1.5000    -1.3340 h1         1 6PY       0.050700
     41 H11         -0.4240    -0.8520     0.2620 h1         1 6PY       0.103700
     42 H12         -3.0570    -0.5230    -1.1960 h1         1 6PY       0.047700
     43 H13         -3.8830    -0.0620     1.3460 ha         1 6PY       0.158000
     44 H14          0.7500     1.1540    -2.0140 h1         1 6PY       0.055700
     45 H15          0.6920     3.3370     0.1220 h1         1 6PY       0.137700
     46 H16          2.9530     2.8610    -0.8010 h1         1 6PY       0.022200
     47 H17          2.3240     3.0510    -2.4380 h1         1 6PY       0.022200
     48 H18          3.2310     5.0130    -1.5520 ho         1 6PY       0.391000
     49 H19         -0.0750     3.4860    -2.5830 ho         1 6PY       0.380000
     50 H20         -5.0150    -1.2090    -0.4050 hn         1 6PY       0.404800
     51 H21         -5.7350    -2.6960    -0.6250 hn         1 6PY       0.404800
     52 H22         -3.0710    -4.4820     0.5160 hn         1 6PY       0.374400
     53 H23          5.7640    -2.5940     0.9590 h1         1 6PY       0.026200
     54 H24          5.5210    -0.9400     1.5320 h1         1 6PY       0.026200
     55 H25          2.7250    -0.5970     1.2600 hn         1 6PY       0.345500
     56 H26         -0.9310    -0.7160    -2.6450 hn         1 6PY       0.306500
@<TRIPOS>BOND
     1     1     8 1   
     2     1    18 1   
     3     1    31 1   
     4     2    21 1   
     5     2    32 1   
     6     2    33 1   
     7     2    34 1   
     8     3    22 1   
     9     3    23 1   
    10     3    35 1   
    11     3    36 1   
    12     4    16 1   
    13     4    23 1   
    14     4    24 2   
    15     5    27 1   
    16     5    37 1   
    17     5    38 1   
    18     5    39 1   
    19     6     7 1   
    20     6    11 1   
    21     6    12 1   
    22     6    40 1   
    23     7     8 1   
    24     7    25 1   
    25     7    41 1   
    26     8     9 1   
    27     8    42 1   
    28     9    10 2   
    29     9    43 1   
    30    10    11 1   
    31    10    28 1   
    32    12    13 1   
    33    12    16 1   
    34    12    44 1   
    35    13    14 1   
    36    13    17 1   
    37    13    45 1   
    38    14    15 1   
    39    14    46 1   
    40    14    47 1   
    41    15    48 1   
    42    17    49 1   
    43    18    19 1   
    44    18    20 2   
    45    19    50 1   
    46    19    51 1   
    47    20    52 1   
    48    21    22 1   
    49    22    53 1   
    50    22    54 1   
    51    23    55 1   
    52    25    27 1   
    53    25    56 1   
    54    26    27 2   
    55    28    29 1   
    56    28    30 1   
@<TRIPOS>SUBSTRUCTURE
     1 6PY         1 TEMP              0 ****  ****    0 ROOT
