@<TRIPOS>MOLECULE
6PY
   56    56     1     0     0
SMALL
No Charge or Current Charge


@<TRIPOS>ATOM
      1 N12         -3.4650    -1.8770    -0.5830 nu         1 6PY      -0.955400
      2 C17          6.4970     0.0950     2.4270 c3         1 6PY       0.147900
      3 C20          3.9400    -2.3120     1.1020 c3         1 6PY       0.113000
      4 C21          2.3650    -0.6750     0.0400 c          1 6PY       0.640100
      5 C28         -0.1890    -2.7540    -3.6950 c3         1 6PY      -0.178100
      6 C01         -0.8540     0.8750    -0.4600 c6         1 6PY       0.150300
      7 C02         -1.3680    -0.5660    -0.7280 c6         1 6PY       0.056700
      8 C03         -2.9230    -0.5240    -0.6620 c6         1 6PY       0.281700
      9 C04         -3.3820     0.2030     0.5760 c2         1 6PY      -0.440200
     10 C05         -2.5880     1.0680     1.2660 ce         1 6PY       0.053900
     11 O06         -1.2910     1.3440     0.8410 os         1 6PY      -0.294100
     12 C07          0.7050     1.0030    -0.5270 c3         1 6PY       0.167300
     13 C08          1.2480     2.4330    -0.2220 c3         1 6PY       0.157300
     14 C09          2.7960     2.5450    -0.2700 c3         1 6PY       0.124600
     15 O10          3.1980     3.9140    -0.0850 oh         1 6PY      -0.644000
     16 O11          1.2810     0.0620     0.4140 os         1 6PY      -0.437100
     17 O13          0.7110     3.3780    -1.1700 oh         1 6PY      -0.621000
     18 C14         -4.4030    -2.2870    -1.3990 c2         1 6PY       0.823100
     19 N15         -5.4330    -2.1610    -0.6480 nv         1 6PY      -1.029200
     20 N16         -4.1940    -3.3690    -1.9560 n2         1 6PY      -0.946100
     21 O18          5.3150    -0.7110     2.3010 os         1 6PY      -0.448000
     22 C19          5.2730    -1.5260     1.1130 c3         1 6PY       0.142600
     23 N22          2.7550    -1.4460     1.0940 ns         1 6PY      -0.476900
     24 O23          2.9060    -0.6580    -1.0530 o          1 6PY      -0.578000
     25 N25         -0.8750    -1.1150    -2.0170 ns         1 6PY      -0.496900
     26 O26         -1.1450    -3.3240    -1.5540 o          1 6PY      -0.624100
     27 C27         -0.7740    -2.4500    -2.3240 c          1 6PY       0.614100
     28 C29         -3.0480     1.8090     2.5320 c          1 6PY       0.725200
     29 O30         -2.2690     2.5770     3.0870 o          1 6PY      -0.689500
     30 O31         -4.1840     1.6130     2.9530 o          1 6PY      -0.689500
     31 H1          -2.7310    -2.5780    -0.5620 hn         1 6PY       0.487000
     32 H2           6.5880     0.7890     1.5820 h1         1 6PY       0.027033
     33 H3           6.4600     0.6850     3.3520 h1         1 6PY       0.027033
     34 H4           7.3970    -0.5340     2.4590 h1         1 6PY       0.027033
     35 H5           3.9120    -2.9560     0.2130 h1         1 6PY       0.059200
     36 H6           3.8970    -2.9620     1.9860 h1         1 6PY       0.059200
     37 H7           0.7950    -2.2790    -3.7750 hc         1 6PY       0.056033
     38 H8          -0.1380    -3.8290    -3.9030 hc         1 6PY       0.056033
     39 H9          -0.7680    -2.2210    -4.4570 hc         1 6PY       0.056033
     40 H10         -1.2850     1.5420    -1.2200 h1         1 6PY       0.050700
     41 H11         -1.0010    -1.2070     0.0860 h1         1 6PY       0.103700
     42 H12         -3.3050     0.0010    -1.5520 h1         1 6PY       0.047700
     43 H13         -4.4020     0.0160     0.9060 ha         1 6PY       0.208000
     44 H14          0.9900     0.7520    -1.5570 h1         1 6PY       0.055700
     45 H15          0.9340     2.6980     0.7980 h1         1 6PY       0.137700
     46 H16          3.2310     1.9190     0.5200 h1         1 6PY       0.022200
     47 H17          3.1600     2.1700    -1.2360 h1         1 6PY       0.022200
     48 H18          4.1810     3.9290    -0.0760 ho         1 6PY       0.430000
     49 H19          1.3340     4.1390    -1.1410 ho         1 6PY       0.419000
     50 H20         -5.0490    -1.8110     0.2130 hn         1 6PY       0.460000
     51 H21         -5.8590    -3.0670    -0.5530 hn         1 6PY       0.460000
     52 H22         -3.1800    -3.4480    -2.0940 hn         1 6PY       0.374400
     53 H23          6.1090    -2.2370     1.1030 h1         1 6PY       0.026200
     54 H24          5.3410    -0.9030     0.2120 h1         1 6PY       0.026200
     55 H25          2.2200    -1.3360     1.9450 hn         1 6PY       0.345500
     56 H26         -0.5740    -0.4700    -2.7370 hn         1 6PY       0.306500
@<TRIPOS>BOND
     1     1     8 1   
     2     1    18 1   
     3     1    31 1   
     4     2    21 1   
     5     2    32 1   
     6     2    33 1   
     7     2    34 1   
     8     3    22 1   
     9     3    23 1   
    10     3    35 1   
    11     3    36 1   
    12     4    16 1   
    13     4    23 1   
    14     4    24 2   
    15     5    27 1   
    16     5    37 1   
    17     5    38 1   
    18     5    39 1   
    19     6     7 1   
    20     6    11 1   
    21     6    12 1   
    22     6    40 1   
    23     7     8 1   
    24     7    25 1   
    25     7    41 1   
    26     8     9 1   
    27     8    42 1   
    28     9    10 2   
    29     9    43 1   
    30    10    11 1   
    31    10    28 1   
    32    12    13 1   
    33    12    16 1   
    34    12    44 1   
    35    13    14 1   
    36    13    17 1   
    37    13    45 1   
    38    14    15 1   
    39    14    46 1   
    40    14    47 1   
    41    15    48 1   
    42    17    49 1   
    43    18    19 1   
    44    18    20 2   
    45    19    50 1   
    46    19    51 1   
    47    20    52 1   
    48    21    22 1   
    49    22    53 1   
    50    22    54 1   
    51    23    55 1   
    52    25    27 1   
    53    25    56 1   
    54    26    27 2   
    55    28    29 1   
    56    28    30 1   
@<TRIPOS>SUBSTRUCTURE
     1 6PY         1 TEMP              0 ****  ****    0 ROOT
