@<TRIPOS>MOLECULE
6PZ
   44    44     1     0     0
SMALL
abcg2


@<TRIPOS>ATOM
      1 N1           2.3770    -0.4550     0.5320 ns         1 6PZ      -0.491900
      2 C7           1.2120    -0.9830    -0.1320 c3         1 6PZ       0.076700
      3 C8           1.2700    -2.5200    -0.2520 c3         1 6PZ       0.163300
      4 C9           1.2090    -3.2380     1.0830 c3         1 6PZ      -0.087100
      5 O8           2.4710    -2.9100    -0.8870 oh         1 6PZ      -0.677000
      6 C6          -0.0540    -0.4810     0.5630 c6         1 6PZ       0.145300
      7 O6          -1.1380    -0.9050    -0.2340 os         1 6PZ      -0.459000
      8 C5          -0.0800     1.0400     0.7460 c6         1 6PZ       0.092700
      9 N2           0.1570     1.7180    -0.5040 ns         1 6PZ      -0.479900
     10 C4          -1.4230     1.4160     1.3720 c6         1 6PZ       0.153300
     11 O4          -1.4720     2.8170     1.4970 oh         1 6PZ      -0.658000
     12 C3          -2.5700     0.8660     0.5330 c6         1 6PZ      -0.121400
     13 C2          -2.4230    -0.6340     0.3060 c6         1 6PZ       0.234000
     14 C1          -3.4090    -1.1930    -0.7640 c          1 6PZ       0.718000
     15 O1B         -3.5110    -0.5820    -1.8330 o          1 6PZ      -0.694000
     16 O1A         -3.9940    -2.2420    -0.4150 o          1 6PZ      -0.694000
     17 C10          3.3990     0.1400    -0.1090 c          1 6PZ       0.619100
     18 O10          3.4490     0.2620    -1.3260 o          1 6PZ      -0.637100
     19 C11          4.4860     0.6840     0.7820 c3         1 6PZ      -0.177100
     20 C12          1.1250     2.6340    -0.6930 c          1 6PZ       0.615100
     21 O12          1.8550     3.0400     0.2010 o          1 6PZ      -0.645100
     22 C13          1.2840     3.1030    -2.1180 c3         1 6PZ      -0.181100
     23 H1           2.4350    -0.5450     1.5340 hn         1 6PZ       0.308500
     24 H2           1.2180    -0.5780    -1.1470 h1         1 6PZ       0.087700
     25 H3           0.4050    -2.8310    -0.8500 h1         1 6PZ       0.069700
     26 H4           0.2430    -3.0830     1.5630 hc         1 6PZ       0.038700
     27 H5           1.3310    -4.3120     0.9410 hc         1 6PZ       0.038700
     28 H6           1.9900    -2.9010     1.7660 hc         1 6PZ       0.038700
     29 H7           2.5410    -2.4380    -1.7230 ho         1 6PZ       0.450000
     30 H8          -0.1150    -0.9220     1.5670 h1         1 6PZ       0.044700
     31 H9           0.7190     1.3260     1.4310 h1         1 6PZ       0.074700
     32 H10         -0.3860     1.4330    -1.3040 hn         1 6PZ       0.332500
     33 H11         -1.4510     0.9420     2.3640 h1         1 6PZ       0.035700
     34 H12         -2.3220     3.0520     1.8820 ho         1 6PZ       0.433000
     35 H13         -3.5290     1.0670     1.0210 hc         1 6PZ       0.060700
     36 H14         -2.5950     1.3790    -0.4310 hc         1 6PZ       0.060700
     37 O2          -2.6180    -1.3230     1.4920 oh         1 6PZ      -0.718000
     38 H17          4.3740     0.4100     1.8290 hc         1 6PZ       0.056033
     39 H18          5.4570     0.3370     0.4330 hc         1 6PZ       0.056033
     40 H19          4.4780     1.7720     0.7120 hc         1 6PZ       0.056033
     41 H20          0.4210     2.8900    -2.7460 hc         1 6PZ       0.056367
     42 H21          1.4800     4.1730    -2.1400 hc         1 6PZ       0.056367
     43 H22          2.1490     2.5980    -2.5510 hc         1 6PZ       0.056367
     44 H15         -3.1610    -2.0860     1.2120 ho         1 6PZ       0.491000
@<TRIPOS>BOND
     1     1     2 1   
     2     1    17 1   
     3     1    23 1   
     4     2     3 1   
     5     2     6 1   
     6     2    24 1   
     7     3     4 1   
     8     3     5 1   
     9     3    25 1   
    10     4    26 1   
    11     4    27 1   
    12     4    28 1   
    13     5    29 1   
    14     6     7 1   
    15     6     8 1   
    16     6    30 1   
    17     7    13 1   
    18     8     9 1   
    19     8    10 1   
    20     8    31 1   
    21     9    20 1   
    22     9    32 1   
    23    10    11 1   
    24    10    12 1   
    25    10    33 1   
    26    11    34 1   
    27    12    13 1   
    28    12    35 1   
    29    12    36 1   
    30    13    14 1   
    31    13    37 1   
    32    14    15 1   
    33    14    16 1   
    34    17    18 2   
    35    17    19 1   
    36    19    38 1   
    37    19    39 1   
    38    19    40 1   
    39    20    21 2   
    40    20    22 1   
    41    22    41 1   
    42    22    42 1   
    43    22    43 1   
    44    37    44 1   
@<TRIPOS>SUBSTRUCTURE
     1 6PZ         1 TEMP              0 ****  ****    0 ROOT
