@<TRIPOS>MOLECULE
6PZ
   44    44     1     0     0
SMALL
No Charge or Current Charge


@<TRIPOS>ATOM
      1 N1           2.4610    -0.3890     0.5980 ns         1 6PZ      -0.491900
      2 C7           1.2750    -0.8960    -0.1280 c3         1 6PZ       0.076700
      3 C8           1.3430    -2.4430    -0.3590 c3         1 6PZ       0.163300
      4 C9           1.4480    -3.2690     0.9430 c3         1 6PZ      -0.087100
      5 O8           2.4620    -2.7680    -1.1980 oh         1 6PZ      -0.677000
      6 C6          -0.0550    -0.4110     0.5440 c6         1 6PZ       0.145300
      7 O6          -1.1600    -0.8840    -0.2720 os         1 6PZ      -0.459000
      8 C5          -0.1580     1.1370     0.7190 c6         1 6PZ       0.092700
      9 N2           0.0570     1.8600    -0.5580 ns         1 6PZ      -0.479900
     10 C4          -1.5440     1.4700     1.3530 c6         1 6PZ       0.153300
     11 O4          -1.7360     2.8890     1.4720 oh         1 6PZ      -0.658000
     12 C3          -2.7000     0.8560     0.5220 c6         1 6PZ      -0.121400
     13 C2          -2.4970    -0.6640     0.2620 c6         1 6PZ       0.234000
     14 C1          -3.6550    -1.1940    -0.7290 c          1 6PZ       0.718000
     15 O1B         -3.3590    -1.3770    -1.9060 o          1 6PZ      -0.694000
     16 O1A         -4.4850    -1.9270    -0.1950 o          1 6PZ      -0.694000
     17 C10          3.7010    -0.1900     0.0420 c          1 6PZ       0.619100
     18 O10          3.9490    -0.5090    -1.1120 o          1 6PZ      -0.637100
     19 C11          4.7390     0.4180     0.9730 c3         1 6PZ      -0.177100
     20 C12          1.1520     2.6240    -0.8810 c          1 6PZ       0.615100
     21 O12          2.0870     2.8030    -0.1140 o          1 6PZ      -0.645100
     22 C13          1.1120     3.2340    -2.2760 c3         1 6PZ      -0.181100
     23 H1           2.3570    -0.1140     1.5680 hn         1 6PZ       0.308500
     24 H2           1.2860    -0.4360    -1.1260 h1         1 6PZ       0.087700
     25 H3           0.4190    -2.7510    -0.8680 h1         1 6PZ       0.069700
     26 H4           0.5790    -3.0930     1.5880 hc         1 6PZ       0.038700
     27 H5           1.4810    -4.3410     0.7150 hc         1 6PZ       0.038700
     28 H6           2.3530    -3.0130     1.5060 hc         1 6PZ       0.038700
     29 H7           3.0380    -1.9580    -1.2140 ho         1 6PZ       0.450000
     30 H8          -0.1140    -0.8780     1.5380 h1         1 6PZ       0.044700
     31 H9           0.6140     1.4560     1.4330 h1         1 6PZ       0.074700
     32 H10         -0.6630     1.7890    -1.2650 hn         1 6PZ       0.332500
     33 H11         -1.5670     1.0170     2.3550 h1         1 6PZ       0.035700
     34 H12         -2.5780     3.0210     1.9590 ho         1 6PZ       0.433000
     35 H13         -3.6560     1.0160     1.0370 hc         1 6PZ       0.060700
     36 H14         -2.7840     1.3760    -0.4420 hc         1 6PZ       0.060700
     37 O2          -2.5770    -1.3830     1.5090 oh         1 6PZ      -0.718000
     38 H17          4.8080    -0.1930     1.8800 hc         1 6PZ       0.056033
     39 H18          5.7160     0.5410     0.4920 hc         1 6PZ       0.056033
     40 H19          4.3560     1.3690     1.3610 hc         1 6PZ       0.056033
     41 H20          0.1890     3.8150    -2.3860 hc         1 6PZ       0.056367
     42 H21          1.9990     3.8360    -2.5000 hc         1 6PZ       0.056367
     43 H22          0.9720     2.4330    -3.0120 hc         1 6PZ       0.056367
     44 H15         -3.3820    -1.9430     1.3760 ho         1 6PZ       0.491000
@<TRIPOS>BOND
     1     1     2 1   
     2     1    17 1   
     3     1    23 1   
     4     2     3 1   
     5     2     6 1   
     6     2    24 1   
     7     3     4 1   
     8     3     5 1   
     9     3    25 1   
    10     4    26 1   
    11     4    27 1   
    12     4    28 1   
    13     5    29 1   
    14     6     7 1   
    15     6     8 1   
    16     6    30 1   
    17     7    13 1   
    18     8     9 1   
    19     8    10 1   
    20     8    31 1   
    21     9    20 1   
    22     9    32 1   
    23    10    11 1   
    24    10    12 1   
    25    10    33 1   
    26    11    34 1   
    27    12    13 1   
    28    12    35 1   
    29    12    36 1   
    30    13    14 1   
    31    13    37 1   
    32    14    15 1   
    33    14    16 1   
    34    17    18 2   
    35    17    19 1   
    36    19    38 1   
    37    19    39 1   
    38    19    40 1   
    39    20    21 2   
    40    20    22 1   
    41    22    41 1   
    42    22    42 1   
    43    22    43 1   
    44    37    44 1   
@<TRIPOS>SUBSTRUCTURE
     1 6PZ         1 TEMP              0 ****  ****    0 ROOT
