@<TRIPOS>MOLECULE
6Q0
   42    44     1     0     0
SMALL
No Charge or Current Charge


@<TRIPOS>ATOM
      1 C1           5.3860     2.6800     0.0560 ca         1 6Q0      -0.056000
      2 C2           5.2670     1.8740     1.2010 ca         1 6Q0      -0.130000
      3 C3           4.9460     2.1990    -1.1890 ca         1 6Q0      -0.130000
      4 C7          -0.9580    -0.7490     1.3710 ca         1 6Q0      -0.090500
      5 C8           4.7100     0.5860     1.1050 ca         1 6Q0      -0.017500
      6 C9           4.3880     0.9130    -1.2920 ca         1 6Q0      -0.017500
      7 C10         -2.9730    -0.0130     0.1810 ca         1 6Q0       0.010000
      8 C11         -4.4420     0.0360     0.0570 cc         1 6Q0      -0.185000
      9 C12         -0.1390    -0.1240     0.4140 ca         1 6Q0      -0.099300
     10 C13          4.2690     0.1010    -0.1440 ca         1 6Q0      -0.311500
     11 C14         -5.4630    -0.8290     0.5270 cc         1 6Q0       0.292300
     12 C15         -5.1230     1.1430    -0.3690 cd         1 6Q0       0.205300
     13 C16         -5.2240    -2.1930     1.1120 c3         1 6Q0      -0.133400
     14 C4          -2.1400     0.6050    -0.7770 ca         1 6Q0      -0.105000
     15 C5          -2.3580    -0.6960     1.2530 ca         1 6Q0      -0.105000
     16 C6          -0.7400     0.5510    -0.6620 ca         1 6Q0      -0.090500
     17 C17         -4.6710     2.5090    -0.8170 c3         1 6Q0      -0.140400
     18 C18          1.3770    -0.1760     0.5370 c3         1 6Q0       0.249100
     19 N19         -6.6840    -0.3540     0.3530 nd         1 6Q0      -0.365300
     20 N20          1.9170    -1.1800    -0.3890 n7         1 6Q0      -0.864300
     21 O21          3.8920    -2.1110    -1.5830 o          1 6Q0      -0.531500
     22 O22          3.6990    -2.2760     0.9750 o          1 6Q0      -0.531500
     23 O23         -6.4710     0.9350    -0.2380 os         1 6Q0      -0.072700
     24 S24          3.5390    -1.5410    -0.2810 sy         1 6Q0       1.147600
     25 H1           5.8170     3.6760     0.1340 ha         1 6Q0       0.118000
     26 H2           5.6070     2.2470     2.1640 ha         1 6Q0       0.120500
     27 H3           5.0360     2.8230    -2.0740 ha         1 6Q0       0.120500
     28 H4          -0.5120    -1.2730     2.2140 ha         1 6Q0       0.120000
     29 H5           4.6240    -0.0250     2.0030 ha         1 6Q0       0.135000
     30 H6           4.0440     0.5530    -2.2610 ha         1 6Q0       0.135000
     31 H7          -5.0850    -2.1340     2.1970 hc         1 6Q0       0.057033
     32 H8          -6.0780    -2.8540     0.9220 hc         1 6Q0       0.057033
     33 H9          -4.3400    -2.6660     0.6690 hc         1 6Q0       0.057033
     34 H10         -2.5670     1.1010    -1.6420 ha         1 6Q0       0.117500
     35 H11         -2.9570    -1.1630     2.0270 ha         1 6Q0       0.117500
     36 H12         -0.1190     1.0260    -1.4190 ha         1 6Q0       0.120000
     37 H13         -4.4380     2.5150    -1.8880 hc         1 6Q0       0.065033
     38 H14         -5.4550     3.2560    -0.6460 hc         1 6Q0       0.065033
     39 H15         -3.7820     2.8360    -0.2650 hc         1 6Q0       0.065033
     40 H16          1.7790     0.8220     0.3150 h1         1 6Q0       0.058200
     41 H17          1.6460    -0.4130     1.5760 h1         1 6Q0       0.058200
     42 H18          1.5080    -2.0820    -0.1620 hn         1 6Q0       0.483000
@<TRIPOS>BOND
     1     1     2 ar  
     2     1     3 ar  
     3     1    25 1   
     4     2     5 ar  
     5     2    26 1   
     6     3     6 ar  
     7     3    27 1   
     8     4     9 ar  
     9     4    15 ar  
    10     4    28 1   
    11     5    10 ar  
    12     5    29 1   
    13     6    10 ar  
    14     6    30 1   
    15     7     8 1   
    16     7    14 ar  
    17     7    15 ar  
    18     8    11 1   
    19     8    12 2   
    20     9    16 ar  
    21     9    18 1   
    22    10    24 1   
    23    11    13 1   
    24    11    19 2   
    25    12    17 1   
    26    12    23 1   
    27    13    31 1   
    28    13    32 1   
    29    13    33 1   
    30    14    16 ar  
    31    14    34 1   
    32    15    35 1   
    33    16    36 1   
    34    17    37 1   
    35    17    38 1   
    36    17    39 1   
    37    18    20 1   
    38    18    40 1   
    39    18    41 1   
    40    19    23 1   
    41    20    24 1   
    42    20    42 1   
    43    21    24 2   
    44    22    24 2   
@<TRIPOS>SUBSTRUCTURE
     1 6Q0         1 TEMP              0 ****  ****    0 ROOT
