@<TRIPOS>MOLECULE
6Q0
   42    44     1     0     0
SMALL
abcg2


@<TRIPOS>ATOM
      1 C1           6.0320     1.2530     1.6820 ca         1 6Q0      -0.056000
      2 C2           5.7130    -0.0960     1.7830 ca         1 6Q0      -0.130000
      3 C3           5.5320     2.0130     0.6330 ca         1 6Q0      -0.130000
      4 C7          -0.9400     0.8900     0.9200 ca         1 6Q0      -0.090500
      5 C8           4.8910    -0.6900     0.8400 ca         1 6Q0      -0.017500
      6 C9           4.7080     1.4310    -0.3200 ca         1 6Q0      -0.017500
      7 C10         -3.0890     0.2050     0.0520 ca         1 6Q0       0.010000
      8 C11         -4.5390     0.0670     0.2000 cc         1 6Q0      -0.185000
      9 C12         -0.3090     0.4890    -0.2510 ca         1 6Q0      -0.099300
     10 C13          4.3950     0.0830    -0.2050 ca         1 6Q0      -0.311500
     11 C14         -5.2690    -0.4810     1.2980 cc         1 6Q0       0.292300
     12 C15         -5.5120     0.4160    -0.6840 cd         1 6Q0       0.205300
     13 C16         -4.7350    -1.0470     2.5660 c3         1 6Q0      -0.133400
     14 C4          -2.4480    -0.2110    -1.1180 ca         1 6Q0      -0.105000
     15 C5          -2.3130     0.7560     1.0690 ca         1 6Q0      -0.105000
     16 C6          -1.0800    -0.0670    -1.2680 ca         1 6Q0      -0.090500
     17 C17         -5.4810     1.0500    -2.0210 c3         1 6Q0      -0.140400
     18 C18          1.1750     0.6640    -0.4230 c3         1 6Q0       0.249100
     19 N19         -6.5470    -0.4570     1.0640 nd         1 6Q0      -0.365300
     20 N20          1.7920    -0.6260    -0.7170 n7         1 6Q0      -0.864300
     21 O21          3.2660     0.1780    -2.5620 o          1 6Q0      -0.531500
     22 O22          3.6450    -2.0730    -1.4960 o          1 6Q0      -0.531500
     23 O23         -6.7040     0.1060    -0.1700 os         1 6Q0      -0.072700
     24 S24          3.2990    -0.6670    -1.3800 sy         1 6Q0       1.147600
     25 H1           6.6750     1.7120     2.4210 ha         1 6Q0       0.118000
     26 H2           6.1100    -0.6890     2.5960 ha         1 6Q0       0.120500
     27 H3           5.7860     3.0610     0.5510 ha         1 6Q0       0.120500
     28 H4          -0.3580     1.3220     1.7260 ha         1 6Q0       0.120000
     29 H5           4.6480    -1.7410     0.9210 ha         1 6Q0       0.135000
     30 H6           4.3260     2.0240    -1.1390 ha         1 6Q0       0.135000
     31 H7          -4.2880    -0.2700     3.1860 hc         1 6Q0       0.057033
     32 H8          -5.5270    -1.5230     3.1400 hc         1 6Q0       0.057033
     33 H9          -3.9610    -1.7870     2.3630 hc         1 6Q0       0.057033
     34 H10         -3.0230    -0.6680    -1.9140 ha         1 6Q0       0.117500
     35 H11         -2.7810     1.1000     1.9820 ha         1 6Q0       0.117500
     36 H12         -0.6070    -0.4000    -2.1830 ha         1 6Q0       0.120000
     37 H13         -5.6340     0.3150    -2.8130 hc         1 6Q0       0.065033
     38 H14         -6.2570     1.8090    -2.1160 hc         1 6Q0       0.065033
     39 H15         -4.5160     1.5240    -2.1880 hc         1 6Q0       0.065033
     40 H16          1.3630     1.3350    -1.2620 h1         1 6Q0       0.058200
     41 H17          1.6040     1.1280     0.4700 h1         1 6Q0       0.058200
     42 H18          1.6900    -1.3040     0.0320 hn         1 6Q0       0.483000
@<TRIPOS>BOND
     1     1     2 ar  
     2     1     3 ar  
     3     1    25 1   
     4     2     5 ar  
     5     2    26 1   
     6     3     6 ar  
     7     3    27 1   
     8     4     9 ar  
     9     4    15 ar  
    10     4    28 1   
    11     5    10 ar  
    12     5    29 1   
    13     6    10 ar  
    14     6    30 1   
    15     7     8 1   
    16     7    14 ar  
    17     7    15 ar  
    18     8    11 1   
    19     8    12 2   
    20     9    16 ar  
    21     9    18 1   
    22    10    24 1   
    23    11    13 1   
    24    11    19 2   
    25    12    17 1   
    26    12    23 1   
    27    13    31 1   
    28    13    32 1   
    29    13    33 1   
    30    14    16 ar  
    31    14    34 1   
    32    15    35 1   
    33    16    36 1   
    34    17    37 1   
    35    17    38 1   
    36    17    39 1   
    37    18    20 1   
    38    18    40 1   
    39    18    41 1   
    40    19    23 1   
    41    20    24 1   
    42    20    42 1   
    43    21    24 2   
    44    22    24 2   
@<TRIPOS>SUBSTRUCTURE
     1 6Q0         1 TEMP              0 ****  ****    0 ROOT
