@<TRIPOS>MOLECULE
6Q1
   69    73     1     0     0
SMALL
No Charge or Current Charge


@<TRIPOS>ATOM
      1 C12          3.4680    -1.6400    -0.1560 ca         1 6Q1      -0.094500
      2 C14         -0.4780     1.3570    -0.5990 cc         1 6Q1      -0.156100
      3 C17         -3.9060     2.1470    -1.4790 c3         1 6Q1      -0.123400
      4 C18         -5.2200     2.9020    -1.2100 c3         1 6Q1       0.111000
      5 C20         -6.9390     1.3400    -0.2050 c          1 6Q1       0.605100
      6 C22         -7.6600     0.9900     1.1070 c3         1 6Q1      -0.155400
      7 C23         -7.6720    -0.5150     1.4940 c3         1 6Q1      -0.060400
      8 C24         -6.2850    -1.1980     1.6150 c3         1 6Q1      -0.093400
      9 C25         -5.8990    -2.0410     0.3760 c3         1 6Q1       0.238800
     10 N02          8.8600     0.7100     1.3430 n3         1 6Q1      -0.717600
     11 C03          9.0310     0.6800    -0.1420 c6         1 6Q1       0.163300
     12 C04          8.0870    -0.3600    -0.8280 c6         1 6Q1       0.162800
     13 N05          6.6490    -0.1370    -0.4870 n3         1 6Q1      -0.718600
     14 C06          5.7490    -1.1030    -1.1590 c3         1 6Q1       0.215100
     15 C07          4.2670    -0.8000    -0.9520 ca         1 6Q1      -0.089300
     16 C08          3.6860     0.3350    -1.5430 ca         1 6Q1      -0.094500
     17 C09          2.3230     0.6200    -1.3500 ca         1 6Q1      -0.111500
     18 C10          1.5050    -0.2320    -0.5760 ca         1 6Q1      -0.002800
     19 C11          2.1040    -1.3560     0.0340 ca         1 6Q1      -0.111500
     20 C13          0.0720     0.0970    -0.3860 cd         1 6Q1      -0.040400
     21 N15         -1.8520     1.1980    -0.3470 na         1 6Q1      -0.194400
     22 C16         -2.8940     2.2400    -0.3100 c3         1 6Q1       0.089600
     23 N19         -5.9790     2.3240    -0.0920 ns         1 6Q1      -0.511900
     24 N26         -4.5630    -2.6560     0.5240 nu         1 6Q1      -0.926100
     25 C27         -3.3370    -2.0350     0.3370 ca         1 6Q1       0.394900
     26 N28         -2.2550    -2.8400     0.3190 nb         1 6Q1      -0.264000
     27 C29         -1.0620    -2.2420     0.0970 ca         1 6Q1       0.200900
     28 C30         -1.0000    -0.8460    -0.0830 ca         1 6Q1      -0.240800
     29 C31         -2.1650    -0.1190    -0.0580 ca         1 6Q1       0.169500
     30 N32         -3.3530    -0.7020     0.1600 nb         1 6Q1      -0.269000
     31 C33          6.4760    -0.1030     1.0000 c6         1 6Q1       0.162800
     32 C34          7.4220     0.9350     1.6860 c6         1 6Q1       0.163300
     33 H121         3.9070    -2.5080     0.3310 ha         1 6Q1       0.115500
     34 H141        -0.0270     2.3080    -0.8620 h4         1 6Q1       0.216000
     35 H171        -4.1520     1.1000    -1.6910 hc         1 6Q1       0.071700
     36 H172        -3.4360     2.5440    -2.3870 hc         1 6Q1       0.071700
     37 H182        -4.9990     3.9530    -0.9790 h1         1 6Q1       0.053200
     38 H181        -5.8430     2.8850    -2.1140 h1         1 6Q1       0.053200
     39 H222        -7.2240     1.5680     1.9300 hc         1 6Q1       0.054200
     40 H221        -8.7010     1.3170     1.0030 hc         1 6Q1       0.054200
     41 H231        -8.1820    -0.6020     2.4620 hc         1 6Q1       0.049200
     42 H232        -8.2950    -1.0690     0.7800 hc         1 6Q1       0.049200
     43 H242        -5.5190    -0.4410     1.8210 hc         1 6Q1       0.051200
     44 H241        -6.2990    -1.8650     2.4860 hc         1 6Q1       0.051200
     45 H251        -6.6520    -2.8310     0.2510 h1         1 6Q1       0.054200
     46 H252        -5.9300    -1.4170    -0.5280 h1         1 6Q1       0.054200
     47 H012         9.6450     1.6300     3.0950 h1         1 6Q1       0.029700
     48 H013        10.8120     1.4450     1.7690 h1         1 6Q1       0.029700
     49 H011         9.5520     2.7000     1.6750 h1         1 6Q1       0.029700
     50 H031         8.8220     1.6730    -0.5660 h1         1 6Q1       0.036950
     51 H032        10.0710     0.4330    -0.4000 h1         1 6Q1       0.036950
     52 H042         8.2330    -0.3000    -1.9170 h1         1 6Q1       0.039700
     53 H041         8.3960    -1.3690    -0.5180 h1         1 6Q1       0.039700
     54 H062         5.9450    -1.0970    -2.2410 h1         1 6Q1       0.037700
     55 H061         5.9620    -2.1220    -0.8060 h1         1 6Q1       0.037700
     56 H081         4.2950     1.0010    -2.1510 ha         1 6Q1       0.115500
     57 H091         1.9040     1.5010    -1.8280 ha         1 6Q1       0.110500
     58 H111         1.5380    -1.9910     0.7040 ha         1 6Q1       0.110500
     59 H161        -2.4180     3.2290    -0.3150 h1         1 6Q1       0.054700
     60 H162        -3.4250     2.1370     0.6450 h1         1 6Q1       0.054700
     61 H191        -5.8260     2.7000     0.8360 hn         1 6Q1       0.308500
     62 H261        -4.5210    -3.6710     0.6290 hn         1 6Q1       0.505000
     63 H291        -0.1990    -2.8980     0.0260 h4         1 6Q1       0.022100
     64 H332         5.4390     0.1520     1.2630 h1         1 6Q1       0.039700
     65 H331         6.6800    -1.0970     1.4270 h1         1 6Q1       0.039700
     66 H342         7.2780     0.8750     2.7750 h1         1 6Q1       0.036950
     67 H341         7.1140     1.9450     1.3770 h1         1 6Q1       0.036950
     68 O21         -7.2380     0.8370    -1.2780 o          1 6Q1      -0.605100
     69 C01          9.7640     1.6730     2.0040 c3         1 6Q1       0.153100
@<TRIPOS>BOND
     1     1    15 ar  
     2     1    19 ar  
     3     1    33 1   
     4     2    20 2   
     5     2    21 1   
     6     2    34 1   
     7     3     4 1   
     8     3    22 1   
     9     3    35 1   
    10     3    36 1   
    11     4    23 1   
    12     4    37 1   
    13     4    38 1   
    14     5     6 1   
    15     5    23 1   
    16     5    68 2   
    17     6     7 1   
    18     6    39 1   
    19     6    40 1   
    20     7     8 1   
    21     7    41 1   
    22     7    42 1   
    23     8     9 1   
    24     8    43 1   
    25     8    44 1   
    26     9    24 1   
    27     9    45 1   
    28     9    46 1   
    29    10    11 1   
    30    10    32 1   
    31    10    69 1   
    32    11    12 1   
    33    11    50 1   
    34    11    51 1   
    35    12    13 1   
    36    12    52 1   
    37    12    53 1   
    38    13    14 1   
    39    13    31 1   
    40    14    15 1   
    41    14    54 1   
    42    14    55 1   
    43    15    16 ar  
    44    16    17 ar  
    45    16    56 1   
    46    17    18 ar  
    47    17    57 1   
    48    18    19 ar  
    49    18    20 1   
    50    19    58 1   
    51    20    28 1   
    52    21    22 1   
    53    21    29 1   
    54    22    59 1   
    55    22    60 1   
    56    23    61 1   
    57    24    25 1   
    58    24    62 1   
    59    25    26 ar  
    60    25    30 ar  
    61    26    27 ar  
    62    27    28 ar  
    63    27    63 1   
    64    28    29 ar  
    65    29    30 ar  
    66    31    32 1   
    67    31    64 1   
    68    31    65 1   
    69    32    66 1   
    70    32    67 1   
    71    47    69 1   
    72    48    69 1   
    73    49    69 1   
@<TRIPOS>SUBSTRUCTURE
     1 6Q1         1 TEMP              0 ****  ****    0 ROOT
