@<TRIPOS>MOLECULE
6Q1
   69    73     1     0     0
SMALL
abcg2


@<TRIPOS>ATOM
      1 C12          3.4760    -1.8310    -0.2480 ca         1 6Q1      -0.094500
      2 C14         -0.4970     1.0560    -0.4800 cc         1 6Q1      -0.156100
      3 C17         -3.7440     2.0940    -1.3830 c3         1 6Q1      -0.123400
      4 C18         -4.9500     2.9940    -1.1230 c3         1 6Q1       0.111000
      5 C20         -6.6590     1.5260    -0.1320 c          1 6Q1       0.605100
      6 C22         -7.3890     1.1690     1.1470 c3         1 6Q1      -0.155400
      7 C23         -7.5470    -0.3330     1.3670 c3         1 6Q1      -0.060400
      8 C24         -6.2240    -1.0900     1.5750 c3         1 6Q1      -0.093400
      9 C25         -5.8700    -1.9740     0.3810 c3         1 6Q1       0.238800
     10 N02          8.6080     0.9000     1.2660 n3         1 6Q1      -0.717600
     11 C03          8.7690     0.8840    -0.1740 c6         1 6Q1       0.163300
     12 C04          7.9660    -0.2470    -0.7880 c6         1 6Q1       0.162800
     13 N05          6.5620    -0.1200    -0.4480 n3         1 6Q1      -0.718600
     14 C06          5.7700    -1.1660    -1.0660 c3         1 6Q1       0.215100
     15 C07          4.2930    -0.9250    -0.9100 ca         1 6Q1      -0.089300
     16 C08          3.7060     0.2320    -1.4220 ca         1 6Q1      -0.094500
     17 C09          2.3490     0.4620    -1.2890 ca         1 6Q1      -0.111500
     18 C10          1.5220    -0.4450    -0.6140 ca         1 6Q1      -0.002800
     19 C11          2.1160    -1.5960    -0.0960 ca         1 6Q1      -0.111500
     20 C13          0.0960    -0.1770    -0.4430 cd         1 6Q1      -0.040400
     21 N15         -1.8510     0.9560    -0.2580 na         1 6Q1      -0.194400
     22 C16         -2.8140     2.0350    -0.1770 c3         1 6Q1       0.089600
     23 N19         -5.7740     2.5330    -0.0260 ns         1 6Q1      -0.511900
     24 N26         -4.6270    -2.6990     0.5250 nu         1 6Q1      -0.926100
     25 C27         -3.4210    -2.1400     0.2910 ca         1 6Q1       0.394900
     26 N28         -2.3690    -2.9860     0.2140 nb         1 6Q1      -0.264000
     27 C29         -1.1750    -2.4760    -0.0210 ca         1 6Q1       0.200900
     28 C30         -0.9740    -1.1070    -0.1790 ca         1 6Q1      -0.240800
     29 C31         -2.1560    -0.3490    -0.0790 ca         1 6Q1       0.169500
     30 N32         -3.3680    -0.8210     0.1530 nb         1 6Q1      -0.269000
     31 C33          6.3970    -0.0940     0.9930 c6         1 6Q1       0.162800
     32 C34          7.2070     1.0310     1.6070 c6         1 6Q1       0.163300
     33 H121         3.9060    -2.7330     0.1710 ha         1 6Q1       0.115500
     34 H141        -0.0490     2.0260    -0.6280 h4         1 6Q1       0.216000
     35 H171        -4.0980     1.0910    -1.6270 hc         1 6Q1       0.071700
     36 H172        -3.2030     2.4690    -2.2550 hc         1 6Q1       0.071700
     37 H182        -4.6240     4.0070    -0.8830 h1         1 6Q1       0.053200
     38 H181        -5.5550     3.0600    -2.0280 h1         1 6Q1       0.053200
     39 H222        -6.8970     1.6200     2.0120 hc         1 6Q1       0.054200
     40 H221        -8.3820     1.6270     1.0850 hc         1 6Q1       0.054200
     41 H231        -8.1890    -0.4650     2.2390 hc         1 6Q1       0.049200
     42 H232        -8.1020    -0.7620     0.5280 hc         1 6Q1       0.049200
     43 H242        -5.4080    -0.3830     1.7460 hc         1 6Q1       0.051200
     44 H241        -6.2840    -1.7170     2.4670 hc         1 6Q1       0.051200
     45 H251        -6.6540    -2.7190     0.2420 h1         1 6Q1       0.054200
     46 H252        -5.8420    -1.3650    -0.5250 h1         1 6Q1       0.054200
     47 H012         9.3040     1.8880     2.9680 h1         1 6Q1       0.029700
     48 H013        10.4620     1.7840     1.6420 h1         1 6Q1       0.029700
     49 H011         9.1300     2.9480     1.5600 h1         1 6Q1       0.029700
     50 H031         8.4560     1.8400    -0.6290 h1         1 6Q1       0.036950
     51 H032         9.8260     0.7430    -0.4160 h1         1 6Q1       0.036950
     52 H042         8.0750    -0.2140    -1.8750 h1         1 6Q1       0.039700
     53 H041         8.3830    -1.2110    -0.4490 h1         1 6Q1       0.039700
     54 H062         6.0220    -1.1910    -2.1310 h1         1 6Q1       0.037700
     55 H061         6.0230    -2.1620    -0.6640 h1         1 6Q1       0.037700
     56 H081         4.3210     0.9590    -1.9400 ha         1 6Q1       0.115500
     57 H091         1.9230     1.3560    -1.7260 ha         1 6Q1       0.110500
     58 H111         1.5260    -2.3120     0.4610 ha         1 6Q1       0.110500
     59 H161        -2.2630     2.9680    -0.0670 h1         1 6Q1       0.054700
     60 H162        -3.3940     1.8900     0.7350 h1         1 6Q1       0.054700
     61 H191        -5.6200     2.9390     0.8820 hn         1 6Q1       0.308500
     62 H261        -4.6550    -3.7040     0.5360 hn         1 6Q1       0.505000
     63 H291        -0.3610    -3.1910    -0.0900 h4         1 6Q1       0.022100
     64 H332         5.3430     0.0580     1.2350 h1         1 6Q1       0.039700
     65 H331         6.7000    -1.0540     1.4480 h1         1 6Q1       0.039700
     66 H342         7.0960     0.9960     2.6930 h1         1 6Q1       0.036950
     67 H341         6.7940     1.9990     1.2700 h1         1 6Q1       0.036950
     68 O21         -6.8940     0.9640    -1.1940 o          1 6Q1      -0.605100
     69 C01          9.4080     1.9320     1.8830 c3         1 6Q1       0.153100
@<TRIPOS>BOND
     1     1    15 ar  
     2     1    19 ar  
     3     1    33 1   
     4     2    20 2   
     5     2    21 1   
     6     2    34 1   
     7     3     4 1   
     8     3    22 1   
     9     3    35 1   
    10     3    36 1   
    11     4    23 1   
    12     4    37 1   
    13     4    38 1   
    14     5     6 1   
    15     5    23 1   
    16     5    68 2   
    17     6     7 1   
    18     6    39 1   
    19     6    40 1   
    20     7     8 1   
    21     7    41 1   
    22     7    42 1   
    23     8     9 1   
    24     8    43 1   
    25     8    44 1   
    26     9    24 1   
    27     9    45 1   
    28     9    46 1   
    29    10    11 1   
    30    10    32 1   
    31    10    69 1   
    32    11    12 1   
    33    11    50 1   
    34    11    51 1   
    35    12    13 1   
    36    12    52 1   
    37    12    53 1   
    38    13    14 1   
    39    13    31 1   
    40    14    15 1   
    41    14    54 1   
    42    14    55 1   
    43    15    16 ar  
    44    16    17 ar  
    45    16    56 1   
    46    17    18 ar  
    47    17    57 1   
    48    18    19 ar  
    49    18    20 1   
    50    19    58 1   
    51    20    28 1   
    52    21    22 1   
    53    21    29 1   
    54    22    59 1   
    55    22    60 1   
    56    23    61 1   
    57    24    25 1   
    58    24    62 1   
    59    25    26 ar  
    60    25    30 ar  
    61    26    27 ar  
    62    27    28 ar  
    63    27    63 1   
    64    28    29 ar  
    65    29    30 ar  
    66    31    32 1   
    67    31    64 1   
    68    31    65 1   
    69    32    66 1   
    70    32    67 1   
    71    47    69 1   
    72    48    69 1   
    73    49    69 1   
@<TRIPOS>SUBSTRUCTURE
     1 6Q1         1 TEMP              0 ****  ****    0 ROOT
