@<TRIPOS>MOLECULE
6Q2
   45    48     1     0     0
SMALL
bcc


@<TRIPOS>ATOM
      1 C18          1.4240     2.0470     0.3410 ca         1 6Q2       0.189600
      2 C9          -0.9800    -1.5520     0.0340 cp         1 6Q2       0.537800
      3 C11         -0.4330    -2.9220     0.1490 cp         1 6Q2      -0.155500
      4 C16         -1.2860    -3.9850     0.4520 ca         1 6Q2      -0.095500
      5 C12          0.9230    -3.1910    -0.0440 ca         1 6Q2      -0.095500
      6 C6          -2.1200     0.9320    -0.1280 ca         1 6Q2      -0.373900
      7 C5          -2.8230     2.2320    -0.1910 c          1 6Q2       0.739100
      8 C20          3.6520     1.4540    -0.3770 ca         1 6Q2       0.158100
      9 C3          -4.9330     0.9950     0.0800 c6         1 6Q2       0.109000
     10 C13          1.4140    -4.4820     0.0740 ca         1 6Q2      -0.140000
     11 C14          0.5580    -5.5300     0.3890 ca         1 6Q2      -0.115000
     12 C15         -0.7940    -5.2750     0.5770 ca         1 6Q2      -0.140000
     13 O24         -2.2200     3.3100    -0.2330 o          1 6Q2      -0.686500
     14 C1          -2.8320    -0.2620    -0.2920 ca         1 6Q2       0.495600
     15 C2          -4.2960    -0.1900    -0.6110 c6         1 6Q2      -0.151700
     16 N4          -4.1640     2.1900    -0.2000 ns         1 6Q2      -0.560900
     17 N10         -2.2890    -1.4630    -0.2320 nb         1 6Q2      -0.726000
     18 C8          -0.1780    -0.4430     0.2120 ca         1 6Q2      -0.335300
     19 C7          -0.7220     0.8460     0.0920 ca         1 6Q2       0.293600
     20 N17          0.0300     1.9610     0.2270 nu         1 6Q2      -0.653000
     21 C19          2.2680     1.3280    -0.4960 ca         1 6Q2      -0.197000
     22 O25          4.3810     0.7050    -1.2240 os         1 6Q2      -0.317900
     23 C26          5.7900     0.8170    -1.1830 c3         1 6Q2       0.125700
     24 C21          4.1920     2.3290     0.5630 ca         1 6Q2      -0.230000
     25 C22          3.3340     3.0630     1.3740 ca         1 6Q2      -0.072000
     26 C23          1.9600     2.9280     1.2820 ca         1 6Q2      -0.188000
     27 H1          -2.3410    -3.7960     0.5960 ha         1 6Q2       0.141500
     28 H2           1.6090    -2.3970    -0.3110 ha         1 6Q2       0.141500
     29 H3          -5.9480     1.1500    -0.2800 h1         1 6Q2       0.047200
     30 H4          -4.9910     0.8180     1.1590 h1         1 6Q2       0.047200
     31 H5           2.4680    -4.6700    -0.0870 ha         1 6Q2       0.131000
     32 H6           0.9420    -6.5370     0.4830 ha         1 6Q2       0.130000
     33 H7          -1.4700    -6.0850     0.8210 ha         1 6Q2       0.131000
     34 H8          -4.7840    -1.1150    -0.3070 hc         1 6Q2       0.076200
     35 H9          -4.4170    -0.0960    -1.6950 hc         1 6Q2       0.076200
     36 H10         -4.6380     3.0800    -0.1570 hn         1 6Q2       0.320500
     37 H11          0.8630    -0.5610     0.4690 ha         1 6Q2       0.156000
     38 H12         -0.4990     2.8290     0.2040 hn         1 6Q2       0.491800
     39 H13          1.8620     0.6790    -1.2620 ha         1 6Q2       0.156000
     40 H14          6.1970     0.5130    -0.2150 h1         1 6Q2       0.041700
     41 H15          6.1750     0.1470    -1.9480 h1         1 6Q2       0.041700
     42 H16          6.1270     1.8330    -1.4030 h1         1 6Q2       0.041700
     43 H17          5.2600     2.4540     0.6770 ha         1 6Q2       0.137000
     44 H18          3.7550     3.7440     2.1020 ha         1 6Q2       0.132000
     45 H19          1.3040     3.4900     1.9320 ha         1 6Q2       0.143000
@<TRIPOS>BOND
     1     1    20 1   
     2     1    21 ar  
     3     1    26 ar  
     4     2     3 1   
     5     2    17 ar  
     6     2    18 ar  
     7     3     4 ar  
     8     3     5 ar  
     9     4    12 ar  
    10     4    27 1   
    11     5    10 ar  
    12     5    28 1   
    13     6     7 1   
    14     6    14 ar  
    15     6    19 ar  
    16     7    13 2   
    17     7    16 1   
    18     8    21 ar  
    19     8    22 1   
    20     8    24 ar  
    21     9    15 1   
    22     9    16 1   
    23     9    29 1   
    24     9    30 1   
    25    10    11 ar  
    26    10    31 1   
    27    11    12 ar  
    28    11    32 1   
    29    12    33 1   
    30    14    15 1   
    31    14    17 ar  
    32    15    34 1   
    33    15    35 1   
    34    16    36 1   
    35    18    19 ar  
    36    18    37 1   
    37    19    20 1   
    38    20    38 1   
    39    21    39 1   
    40    22    23 1   
    41    23    40 1   
    42    23    41 1   
    43    23    42 1   
    44    24    25 ar  
    45    24    43 1   
    46    25    26 ar  
    47    25    44 1   
    48    26    45 1   
@<TRIPOS>SUBSTRUCTURE
     1 6Q2         1 TEMP              0 ****  ****    0 ROOT
