@<TRIPOS>MOLECULE
6Q2
   45    48     1     0     0
SMALL
No Charge or Current Charge


@<TRIPOS>ATOM
      1 C18          1.4770     2.0680     0.4550 ca         1 6Q2       0.328000
      2 C9          -1.0230    -1.6570     0.0900 cp         1 6Q2       0.472500
      3 C11         -0.5230    -3.0760     0.1700 cp         1 6Q2      -0.155500
      4 C16         -1.4120    -4.1610     0.4100 ca         1 6Q2      -0.077500
      5 C12          0.8550    -3.3900     0.0000 ca         1 6Q2      -0.077500
      6 C6          -2.0770     0.9070    -0.0180 ca         1 6Q2      -0.308600
      7 C5          -2.7550     2.2420    -0.0510 c          1 6Q2       0.596600
      8 C20          3.7190     1.5660    -0.3580 ca         1 6Q2       0.158100
      9 C3          -4.9880     1.0670    -0.0510 c6         1 6Q2       0.109000
     10 C13          1.3170    -4.7150     0.0760 ca         1 6Q2      -0.122000
     11 C14          0.4180    -5.7630     0.3210 ca         1 6Q2      -0.097000
     12 C15         -0.9470    -5.4850     0.4870 ca         1 6Q2      -0.122000
     13 O24         -2.1550     3.3050    -0.0110 o          1 6Q2      -0.611000
     14 C1          -2.8330    -0.2440    -0.2580 ca         1 6Q2       0.430300
     15 C2          -4.2980    -0.1650    -0.6480 c6         1 6Q2      -0.151700
     16 N4          -4.1240     2.2460    -0.1150 ns         1 6Q2      -0.493900
     17 N10         -2.3220    -1.4860    -0.2180 nb         1 6Q2      -0.726000
     18 C8          -0.1940    -0.5490     0.3330 ca         1 6Q2      -0.252000
     19 C7          -0.7120     0.7420     0.2460 ca         1 6Q2       0.432000
     20 N17          0.1030     1.8420     0.4750 nu         1 6Q2      -0.985000
     21 C19          2.3410     1.3040    -0.3440 ca         1 6Q2      -0.179000
     22 O25          4.5150     0.7760    -1.1620 os         1 6Q2      -0.341100
     23 C26          5.9390     0.9610    -1.2500 c3         1 6Q2       0.148900
     24 C21          4.2380     2.6150     0.4300 ca         1 6Q2      -0.212000
     25 C22          3.3740     3.3960     1.2140 ca         1 6Q2      -0.054000
     26 C23          1.9960     3.1240     1.2180 ca         1 6Q2      -0.170000
     27 H1          -2.4750    -3.9760     0.5480 ha         1 6Q2       0.123500
     28 H2           1.5780    -2.6050    -0.2090 ha         1 6Q2       0.123500
     29 H3          -5.9300     1.2730    -0.5790 h1         1 6Q2       0.047200
     30 H4          -5.2240     0.8790     1.0060 h1         1 6Q2       0.047200
     31 H5           2.3750    -4.9290    -0.0590 ha         1 6Q2       0.113000
     32 H6           0.7770    -6.7890     0.3790 ha         1 6Q2       0.112000
     33 H7          -1.6470    -6.2960     0.6750 ha         1 6Q2       0.113000
     34 H8          -4.8360    -1.0720    -0.3430 hc         1 6Q2       0.076200
     35 H9          -4.3610    -0.1180    -1.7430 hc         1 6Q2       0.076200
     36 H10         -4.5580     3.1620    -0.1410 hn         1 6Q2       0.320500
     37 H11          0.8370    -0.7000     0.6240 ha         1 6Q2       0.138000
     38 H12         -0.4550     2.7030     0.5390 hn         1 6Q2       0.547000
     39 H13          1.9490     0.5170    -0.9780 ha         1 6Q2       0.138000
     40 H14          6.4120     0.8250    -0.2690 h1         1 6Q2       0.041700
     41 H15          6.3760     0.2290    -1.9420 h1         1 6Q2       0.041700
     42 H16          6.1800     1.9650    -1.6220 h1         1 6Q2       0.041700
     43 H17          5.3000     2.8430     0.4400 ha         1 6Q2       0.119000
     44 H18          3.7700     4.2110     1.8160 ha         1 6Q2       0.114000
     45 H19          1.3320     3.7310     1.8280 ha         1 6Q2       0.125000
@<TRIPOS>BOND
     1     1    20 1   
     2     1    21 ar  
     3     1    26 ar  
     4     2     3 1   
     5     2    17 ar  
     6     2    18 ar  
     7     3     4 ar  
     8     3     5 ar  
     9     4    12 ar  
    10     4    27 1   
    11     5    10 ar  
    12     5    28 1   
    13     6     7 1   
    14     6    14 ar  
    15     6    19 ar  
    16     7    13 2   
    17     7    16 1   
    18     8    21 ar  
    19     8    22 1   
    20     8    24 ar  
    21     9    15 1   
    22     9    16 1   
    23     9    29 1   
    24     9    30 1   
    25    10    11 ar  
    26    10    31 1   
    27    11    12 ar  
    28    11    32 1   
    29    12    33 1   
    30    14    15 1   
    31    14    17 ar  
    32    15    34 1   
    33    15    35 1   
    34    16    36 1   
    35    18    19 ar  
    36    18    37 1   
    37    19    20 1   
    38    20    38 1   
    39    21    39 1   
    40    22    23 1   
    41    23    40 1   
    42    23    41 1   
    43    23    42 1   
    44    24    25 ar  
    45    24    43 1   
    46    25    26 ar  
    47    25    44 1   
    48    26    45 1   
@<TRIPOS>SUBSTRUCTURE
     1 6Q2         1 TEMP              0 ****  ****    0 ROOT
