@<TRIPOS>MOLECULE
6Q3
   26    26     1     0     0
SMALL
No Charge or Current Charge


@<TRIPOS>ATOM
      1 N3          -0.8550    -1.0060    -0.0750 nb         1 6Q3      -0.340000
      2 C2          -2.1590    -1.2940    -0.0940 ca         1 6Q3       0.410900
      3 N2          -2.4690    -2.6080    -0.1370 nv         1 6Q3      -1.055900
      4 N1          -3.1900    -0.4400    -0.0720 nb         1 6Q3      -0.280000
      5 C6          -2.8740     0.8680    -0.0280 ca         1 6Q3       0.185300
      6 C7          -4.0230     1.8580     0.0030 c3         1 6Q3      -0.149400
      7 C4          -0.5380     0.3040    -0.0300 ca         1 6Q3       0.396300
      8 C5          -1.5350     1.2880    -0.0030 ca         1 6Q3      -0.300000
      9 O1           5.5990     0.4480     0.0170 oh         1 6Q3      -0.658000
     10 C1           4.4120    -0.3500    -0.0190 c3         1 6Q3       0.166600
     11 C8           3.1730     0.5630     0.0050 c3         1 6Q3      -0.091400
     12 C3           1.8550    -0.2300    -0.0320 c3         1 6Q3       0.172600
     13 O3           0.7740     0.7200    -0.0060 os         1 6Q3      -0.458300
     14 H21N        -1.7350    -3.2800     0.0730 hn         1 6Q3       0.490500
     15 H22N        -3.4230    -2.8880     0.0770 hn         1 6Q3       0.490500
     16 H71C        -4.4430     1.9360     1.0120 hc         1 6Q3       0.055033
     17 H72C        -3.6950     2.8590    -0.3020 hc         1 6Q3       0.055033
     18 H73C        -4.8290     1.5530    -0.6750 hc         1 6Q3       0.055033
     19 H5          -1.2730     2.3410     0.0350 ha         1 6Q3       0.145000
     20 H1           6.3620    -0.1730    -0.0000 ho         1 6Q3       0.445000
     21 H1'1         4.3940    -0.9640    -0.9300 h1         1 6Q3       0.017200
     22 H1'2         4.3820    -1.0260     0.8460 h1         1 6Q3       0.017200
     23 H2'1         3.1960     1.1800     0.9110 hc         1 6Q3       0.067700
     24 H2'2         3.2080     1.2420    -0.8550 hc         1 6Q3       0.067700
     25 H3'1         1.8170    -0.8390    -0.9450 h1         1 6Q3       0.048200
     26 H3'2         1.8050    -0.9010     0.8370 h1         1 6Q3       0.048200
@<TRIPOS>BOND
     1     1     2 ar  
     2     1     7 ar  
     3     2     3 1   
     4     2     4 ar  
     5     3    14 1   
     6     3    15 1   
     7     4     5 ar  
     8     5     6 1   
     9     5     8 ar  
    10     6    16 1   
    11     6    17 1   
    12     6    18 1   
    13     7     8 ar  
    14     7    13 1   
    15     8    19 1   
    16     9    10 1   
    17     9    20 1   
    18    10    11 1   
    19    10    21 1   
    20    10    22 1   
    21    11    12 1   
    22    11    23 1   
    23    11    24 1   
    24    12    13 1   
    25    12    25 1   
    26    12    26 1   
@<TRIPOS>SUBSTRUCTURE
     1 6Q3         1 TEMP              0 ****  ****    0 ROOT
