@<TRIPOS>MOLECULE
6Q3
   26    26     1     0     0
SMALL
bcc


@<TRIPOS>ATOM
      1 N3          -0.7580    -0.9140    -0.0310 nb         1 6Q3      -0.866000
      2 C2          -2.0510    -1.2640    -0.0560 ca         1 6Q3       0.936900
      3 N2          -2.3140    -2.5870    -0.1220 nv         1 6Q3      -0.945500
      4 N1          -3.0870    -0.4310    -0.0520 nb         1 6Q3      -0.806000
      5 C6          -2.8050     0.8740    -0.0290 ca         1 6Q3       0.513600
      6 C7          -3.9720     1.8080    -0.0170 c3         1 6Q3      -0.149400
      7 C4          -0.5030     0.3730    -0.0080 ca         1 6Q3       0.724600
      8 C5          -1.5080     1.3460    -0.0110 ca         1 6Q3      -0.448600
      9 O1           5.4850     0.3430    -0.0390 oh         1 6Q3      -0.595800
     10 C1           4.2850    -0.3960    -0.0290 c3         1 6Q3       0.143400
     11 C8           3.1190     0.5740    -0.0020 c3         1 6Q3      -0.091400
     12 C3           1.8030    -0.1770     0.0000 c3         1 6Q3       0.149400
     13 O3           0.7550     0.7920     0.0210 os         1 6Q3      -0.435100
     14 H21N        -1.5760    -3.2310     0.1020 hn         1 6Q3       0.435300
     15 H22N        -3.2510    -2.8960     0.0710 hn         1 6Q3       0.435300
     16 H71C        -4.5880     1.6370     0.8660 hc         1 6Q3       0.055033
     17 H72C        -3.6570     2.8500    -0.0180 hc         1 6Q3       0.055033
     18 H73C        -4.6070     1.6390    -0.8870 hc         1 6Q3       0.055033
     19 H5          -1.2800     2.4020     0.0090 ha         1 6Q3       0.163000
     20 H1           6.2170    -0.2780    -0.0810 ho         1 6Q3       0.406000
     21 H1'1         4.2030    -1.0380    -0.9160 h1         1 6Q3       0.017200
     22 H1'2         4.2290    -1.0580     0.8450 h1         1 6Q3       0.017200
     23 H2'1         3.1870     1.2040     0.8880 hc         1 6Q3       0.067700
     24 H2'2         3.1690     1.2280    -0.8760 hc         1 6Q3       0.067700
     25 H3'1         1.7140    -0.8080    -0.8880 h1         1 6Q3       0.048200
     26 H3'2         1.7270    -0.8310     0.8740 h1         1 6Q3       0.048200
@<TRIPOS>BOND
     1     1     2 ar  
     2     1     7 ar  
     3     2     3 1   
     4     2     4 ar  
     5     3    14 1   
     6     3    15 1   
     7     4     5 ar  
     8     5     6 1   
     9     5     8 ar  
    10     6    16 1   
    11     6    17 1   
    12     6    18 1   
    13     7     8 ar  
    14     7    13 1   
    15     8    19 1   
    16     9    10 1   
    17     9    20 1   
    18    10    11 1   
    19    10    21 1   
    20    10    22 1   
    21    11    12 1   
    22    11    23 1   
    23    11    24 1   
    24    12    13 1   
    25    12    25 1   
    26    12    26 1   
@<TRIPOS>SUBSTRUCTURE
     1 6Q3         1 TEMP              0 ****  ****    0 ROOT
