@<TRIPOS>MOLECULE
6Q4
   78    81     1     0     0
SMALL
No Charge or Current Charge


@<TRIPOS>ATOM
      1 C5          -3.2580    -0.1700     0.7540 ca         1 6Q4       0.478900
      2 C6          -2.9670    -1.3360     1.4770 ca         1 6Q4      -0.445300
      3 C10          2.0210    -0.2340    -0.3450 ca         1 6Q4      -0.162000
      4 C13          3.4150     2.1880    -0.5410 ca         1 6Q4      -0.045000
      5 C20         -4.8880     1.9690     2.2060 c5         1 6Q4      -0.101400
      6 C21         -6.3740     2.3500     2.4960 c5         1 6Q4      -0.080400
      7 C22         -7.1440     1.5290     1.4330 c5         1 6Q4      -0.084400
      8 C24         -6.6010     1.1510    -1.1510 c          1 6Q4       0.605100
      9 C28         -9.2270    -0.4600    -2.4390 c3         1 6Q4      -0.108600
     10 C1          -1.6040    -1.6540     1.6300 ca         1 6Q4       0.226900
     11 N2          -0.6350    -0.8900     1.1020 nb         1 6Q4      -0.270000
     12 C3          -1.0340     0.1860     0.4100 ca         1 6Q4       0.447900
     13 N4          -2.2910     0.5900     0.2150 nb         1 6Q4      -0.342000
     14 N7          -4.5780     0.2180     0.5490 nu         1 6Q4      -0.912100
     15 N8          -0.0780     1.0270    -0.1340 nu         1 6Q4      -0.920900
     16 C9           1.3120     0.9780    -0.2710 ca         1 6Q4       0.332000
     17 C11          3.4180    -0.2380    -0.4970 ca         1 6Q4      -0.045000
     18 C12          4.1350     0.9760    -0.5710 ca         1 6Q4      -0.174600
     19 C14          2.0170     2.1850    -0.3880 ca         1 6Q4      -0.162000
     20 O16          6.1450     1.8740    -1.4660 o          1 6Q4      -0.601100
     21 N17          6.4350    -0.0100    -0.1800 n          1 6Q4      -0.404800
     22 C18          6.0020    -0.6450     1.0940 c3         1 6Q4       0.090300
     23 C19         -4.8260     1.6870     0.6580 c5         1 6Q4       0.260500
     24 C23         -6.2950     1.9050     0.1750 c5         1 6Q4      -0.177700
     25 O26         -6.3850     1.5770    -2.2770 o          1 6Q4      -0.598100
     26 C27         -7.8280    -0.8950    -1.9640 c3         1 6Q4       0.109700
     27 C29         -7.8060    -2.3490    -1.4580 c3         1 6Q4      -0.108600
     28 C30         -4.0470    -2.2340     2.0750 c3         1 6Q4       0.380300
     29 F31         -4.8880    -2.7020     1.1260 f          1 6Q4      -0.119333
     30 F32         -3.5400    -3.3150     2.7090 f          1 6Q4      -0.119333
     31 F33         -4.8020    -1.5740     2.9810 f          1 6Q4      -0.119333
     32 C34          7.8650    -0.1620    -0.5810 c6         1 6Q4       0.105700
     33 C35          8.3490    -1.6350    -0.5410 c6         1 6Q4      -0.088400
     34 C36          9.8240    -1.7360    -0.9930 c6         1 6Q4       0.166300
     35 N37         10.7070    -0.8810    -0.1540 n3         1 6Q4      -0.717600
     36 C38         10.2790     0.5440    -0.1800 c6         1 6Q4       0.166300
     37 C39          8.8140     0.7050     0.2860 c6         1 6Q4      -0.088400
     38 C40         12.1360    -1.0450    -0.4940 c3         1 6Q4       0.153100
     39 H1           1.4950    -1.1820    -0.3140 ha         1 6Q4       0.134500
     40 H2           3.9400     3.1380    -0.6240 ha         1 6Q4       0.124000
     41 H3          -4.2170     2.7910     2.4800 hc         1 6Q4       0.061700
     42 H4          -4.5780     1.1150     2.8190 hc         1 6Q4       0.061700
     43 H5          -6.6750     2.0970     3.5190 hc         1 6Q4       0.049700
     44 H6          -6.5430     3.4270     2.3680 hc         1 6Q4       0.049700
     45 H7          -7.1310     0.4610     1.6800 hc         1 6Q4       0.045700
     46 H8          -8.1910     1.8410     1.3440 hc         1 6Q4       0.045700
     47 H9          -9.2020     0.5650    -2.8270 hc         1 6Q4       0.042200
     48 H10         -9.5840    -1.1180    -3.2410 hc         1 6Q4       0.042200
     49 H11         -9.9490    -0.4990    -1.6140 hc         1 6Q4       0.042200
     50 H12         -1.2710    -2.5320     2.1800 h4         1 6Q4       0.034100
     51 H13         -5.2390    -0.4220     0.9730 hn         1 6Q4       0.507000
     52 H14         -0.4870     1.9090    -0.4360 hn         1 6Q4       0.512000
     53 H15          3.9330    -1.1920    -0.5880 ha         1 6Q4       0.124000
     54 H16          1.4840     3.1310    -0.3540 ha         1 6Q4       0.134500
     55 H17          5.6150    -1.6520     0.8940 h1         1 6Q4       0.040367
     56 H18          6.8450    -0.7280     1.7900 h1         1 6Q4       0.040367
     57 H19          5.2230    -0.0470     1.5820 h1         1 6Q4       0.040367
     58 H20         -4.1160     2.3270     0.1090 h1         1 6Q4       0.103700
     59 H21         -6.4010     2.9700    -0.0630 hc         1 6Q4       0.090700
     60 H22         -7.5440    -0.2190     0.0400 hn         1 6Q4       0.308500
     61 H23         -7.1440    -0.8350    -2.8240 h1         1 6Q4       0.082700
     62 H24         -8.4680    -2.4740    -0.5930 hc         1 6Q4       0.042200
     63 H25         -8.1360    -3.0370    -2.2460 hc         1 6Q4       0.042200
     64 H26         -6.7900    -2.6380    -1.1600 hc         1 6Q4       0.042200
     65 H27          7.9660     0.1750    -1.6240 h1         1 6Q4       0.079700
     66 H28          8.2600    -2.0520     0.4710 hc         1 6Q4       0.052450
     67 H29          7.7200    -2.2540    -1.1950 hc         1 6Q4       0.052450
     68 H30         10.1400    -2.7880    -0.9300 h1         1 6Q4       0.033450
     69 H31          9.8980    -1.4390    -2.0500 h1         1 6Q4       0.033450
     70 H33         10.9250     1.1470     0.4760 h1         1 6Q4       0.033450
     71 H34         10.3800     0.9530    -1.1970 h1         1 6Q4       0.033450
     72 H35          8.5230     1.7620     0.2210 hc         1 6Q4       0.052450
     73 H36          8.7390     0.4230     1.3440 hc         1 6Q4       0.052450
     74 H37         12.3340    -0.7180    -1.5240 h1         1 6Q4       0.030367
     75 H38         12.7670    -0.4530     0.1830 h1         1 6Q4       0.030367
     76 H39         12.4380    -2.0970    -0.4040 h1         1 6Q4       0.030367
     77 N25         -7.3360     0.0040    -0.9230 ns         1 6Q4      -0.504900
     78 C15          5.6390     1.0120    -0.7570 c          1 6Q4       0.619700
@<TRIPOS>BOND
     1     1     2 ar  
     2     1    13 ar  
     3     1    14 1   
     4     2    10 ar  
     5     2    28 1   
     6     3    16 ar  
     7     3    17 ar  
     8     3    39 1   
     9     4    18 ar  
    10     4    19 ar  
    11     4    40 1   
    12     5     6 1   
    13     5    23 1   
    14     5    41 1   
    15     5    42 1   
    16     6     7 1   
    17     6    43 1   
    18     6    44 1   
    19     7    24 1   
    20     7    45 1   
    21     7    46 1   
    22     8    24 1   
    23     8    25 2   
    24     8    77 1   
    25     9    26 1   
    26     9    47 1   
    27     9    48 1   
    28     9    49 1   
    29    10    11 ar  
    30    10    50 1   
    31    11    12 ar  
    32    12    13 ar  
    33    12    15 1   
    34    14    23 1   
    35    14    51 1   
    36    15    16 1   
    37    15    52 1   
    38    16    19 ar  
    39    17    18 ar  
    40    17    53 1   
    41    18    78 1   
    42    19    54 1   
    43    20    78 2   
    44    21    22 1   
    45    21    32 1   
    46    21    78 1   
    47    22    55 1   
    48    22    56 1   
    49    22    57 1   
    50    23    24 1   
    51    23    58 1   
    52    24    59 1   
    53    26    27 1   
    54    26    61 1   
    55    26    77 1   
    56    27    62 1   
    57    27    63 1   
    58    27    64 1   
    59    28    29 1   
    60    28    30 1   
    61    28    31 1   
    62    32    33 1   
    63    32    37 1   
    64    32    65 1   
    65    33    34 1   
    66    33    66 1   
    67    33    67 1   
    68    34    35 1   
    69    34    68 1   
    70    34    69 1   
    71    35    36 1   
    72    35    38 1   
    73    36    37 1   
    74    36    70 1   
    75    36    71 1   
    76    37    72 1   
    77    37    73 1   
    78    38    74 1   
    79    38    75 1   
    80    38    76 1   
    81    60    77 1   
@<TRIPOS>SUBSTRUCTURE
     1 6Q4         1 TEMP              0 ****  ****    0 ROOT
