@<TRIPOS>MOLECULE
6Q4
   78    81     1     0     0
SMALL
bcc


@<TRIPOS>ATOM
      1 C5          -3.1990    -0.3690     0.5250 ca         1 6Q4       0.807200
      2 C6          -2.9750    -1.7680     0.6880 ca         1 6Q4      -0.575900
      3 C10          2.1070    -0.5010    -0.0830 ca         1 6Q4      -0.180000
      4 C13          3.4360     1.7910    -0.9170 ca         1 6Q4      -0.063000
      5 C20         -4.3640     2.3930     1.7570 c5         1 6Q4      -0.101400
      6 C21         -5.6000     2.1750     2.6510 c5         1 6Q4      -0.080400
      7 C22         -6.7170     1.6560     1.7180 c5         1 6Q4      -0.084400
      8 C24         -6.7210     1.0200    -0.8510 c          1 6Q4       0.672100
      9 C28         -9.5320    -0.0470    -2.1700 c3         1 6Q4      -0.108600
     10 C1          -1.6690    -2.1860     0.5700 ca         1 6Q4       0.555200
     11 N2          -0.6490    -1.3790     0.3120 nb         1 6Q4      -0.796000
     12 C3          -0.9620    -0.0970     0.1580 ca         1 6Q4       0.973900
     13 N4          -2.1780     0.4340     0.2580 nb         1 6Q4      -0.868000
     14 N7          -4.4110     0.1910     0.6170 nu         1 6Q4      -0.856900
     15 N8           0.0100     0.8080    -0.1330 nu         1 6Q4      -0.727300
     16 C9           1.3800     0.6710    -0.3030 ca         1 6Q4       0.193600
     17 C11          3.4820    -0.5030    -0.2580 ca         1 6Q4      -0.063000
     18 C12          4.1690     0.6330    -0.6680 ca         1 6Q4      -0.174600
     19 C14          2.0710     1.8170    -0.7210 ca         1 6Q4      -0.180000
     20 O16          6.0270     1.0950    -2.0290 o          1 6Q4      -0.601100
     21 N17          6.4600     0.0380    -0.0750 n          1 6Q4      -0.471800
     22 C18          6.0960    -0.2100     1.3080 c3         1 6Q4       0.090300
     23 C19         -4.6560     1.6180     0.4730 c5         1 6Q4       0.260500
     24 C23         -6.1630     1.8390     0.2990 c5         1 6Q4      -0.177700
     25 O26         -6.2640     1.1610    -1.9790 o          1 6Q4      -0.598100
     26 C27         -8.3190    -0.7260    -1.5460 c3         1 6Q4       0.109700
     27 C29         -8.6870    -2.0510    -0.8960 c3         1 6Q4      -0.108600
     28 C30         -4.0740    -2.7290     0.9480 c3         1 6Q4       0.744200
     29 F31         -4.9890    -2.7360    -0.0410 f          1 6Q4      -0.240633
     30 F32         -3.6390    -3.9820     1.0800 f          1 6Q4      -0.240633
     31 F33         -4.7590    -2.4330     2.0710 f          1 6Q4      -0.240633
     32 C34          7.8630    -0.1520    -0.4360 c6         1 6Q4       0.105700
     33 C35          8.4110    -1.4830     0.0670 c6         1 6Q4      -0.088400
     34 C36          9.8680    -1.6320    -0.3460 c6         1 6Q4       0.166300
     35 N37         10.6730    -0.5340     0.1550 n3         1 6Q4      -0.717600
     36 C38         10.2000     0.7380    -0.3560 c6         1 6Q4       0.166300
     37 C39          8.7530     0.9930     0.0420 c6         1 6Q4      -0.088400
     38 C40         12.0730    -0.7330    -0.1410 c3         1 6Q4       0.153100
     39 H1           1.6070    -1.4050     0.2240 ha         1 6Q4       0.152500
     40 H2           3.9350     2.6900    -1.2570 ha         1 6Q4       0.142000
     41 H3          -4.2550     3.4500     1.5020 hc         1 6Q4       0.061700
     42 H4          -3.4310     2.0810     2.2250 hc         1 6Q4       0.061700
     43 H5          -5.3970     1.4500     3.4380 hc         1 6Q4       0.049700
     44 H6          -5.8920     3.1010     3.1450 hc         1 6Q4       0.049700
     45 H7          -6.9180     0.6040     1.9420 hc         1 6Q4       0.045700
     46 H8          -7.6600     2.1850     1.8560 hc         1 6Q4       0.045700
     47 H9          -9.2600     0.9010    -2.6330 hc         1 6Q4       0.042200
     48 H10         -9.9690    -0.6840    -2.9400 hc         1 6Q4       0.042200
     49 H11        -10.3000     0.1460    -1.4180 hc         1 6Q4       0.042200
     50 H12         -1.4150    -3.2330     0.6860 h4         1 6Q4       0.034100
     51 H13         -5.1940    -0.3830     0.8790 hn         1 6Q4       0.451800
     52 H14         -0.3490     1.7440    -0.2590 hn         1 6Q4       0.456800
     53 H15          4.0160    -1.4280    -0.0780 ha         1 6Q4       0.142000
     54 H16          1.5230     2.7340    -0.9050 ha         1 6Q4       0.152500
     55 H17          5.9140    -1.2670     1.5090 h1         1 6Q4       0.040367
     56 H18          6.9020     0.1220     1.9620 h1         1 6Q4       0.040367
     57 H19          5.2090     0.3500     1.5860 h1         1 6Q4       0.040367
     58 H20         -4.0820     1.9880    -0.3740 h1         1 6Q4       0.103700
     59 H21         -6.2920     2.8880     0.0130 hc         1 6Q4       0.090700
     60 H22         -8.0990     0.1510     0.3600 hn         1 6Q4       0.308500
     61 H23         -7.5780    -0.9100    -2.3240 h1         1 6Q4       0.082700
     62 H24         -9.4110    -1.9070    -0.0900 hc         1 6Q4       0.042200
     63 H25         -9.1400    -2.7170    -1.6300 hc         1 6Q4       0.042200
     64 H26         -7.8100    -2.5490    -0.4820 hc         1 6Q4       0.042200
     65 H27          7.9080    -0.1720    -1.5260 h1         1 6Q4       0.079700
     66 H28          8.3480    -1.5520     1.1560 hc         1 6Q4       0.052450
     67 H29          7.8310    -2.3120    -0.3470 hc         1 6Q4       0.052450
     68 H30         10.2630    -2.5680     0.0560 h1         1 6Q4       0.033450
     69 H31          9.9330    -1.7120    -1.4470 h1         1 6Q4       0.033450
     70 H33         10.8330     1.5340     0.0430 h1         1 6Q4       0.033450
     71 H34         10.2870     0.7870    -1.4570 h1         1 6Q4       0.033450
     72 H35          8.4170     1.9350    -0.3960 hc         1 6Q4       0.052450
     73 H36          8.6910     1.0970     1.1290 hc         1 6Q4       0.052450
     74 H37         12.2880    -0.7740    -1.2200 h1         1 6Q4       0.030367
     75 H38         12.6660     0.0790     0.2840 h1         1 6Q4       0.030367
     76 H39         12.4210    -1.6670     0.3020 h1         1 6Q4       0.030367
     77 N25         -7.6840     0.1330    -0.5580 ns         1 6Q4      -0.571900
     78 C15          5.6300     0.6160    -0.9720 c          1 6Q4       0.686700
@<TRIPOS>BOND
     1     1     2 ar  
     2     1    13 ar  
     3     1    14 1   
     4     2    10 ar  
     5     2    28 1   
     6     3    16 ar  
     7     3    17 ar  
     8     3    39 1   
     9     4    18 ar  
    10     4    19 ar  
    11     4    40 1   
    12     5     6 1   
    13     5    23 1   
    14     5    41 1   
    15     5    42 1   
    16     6     7 1   
    17     6    43 1   
    18     6    44 1   
    19     7    24 1   
    20     7    45 1   
    21     7    46 1   
    22     8    24 1   
    23     8    25 2   
    24     8    77 1   
    25     9    26 1   
    26     9    47 1   
    27     9    48 1   
    28     9    49 1   
    29    10    11 ar  
    30    10    50 1   
    31    11    12 ar  
    32    12    13 ar  
    33    12    15 1   
    34    14    23 1   
    35    14    51 1   
    36    15    16 1   
    37    15    52 1   
    38    16    19 ar  
    39    17    18 ar  
    40    17    53 1   
    41    18    78 1   
    42    19    54 1   
    43    20    78 2   
    44    21    22 1   
    45    21    32 1   
    46    21    78 1   
    47    22    55 1   
    48    22    56 1   
    49    22    57 1   
    50    23    24 1   
    51    23    58 1   
    52    24    59 1   
    53    26    27 1   
    54    26    61 1   
    55    26    77 1   
    56    27    62 1   
    57    27    63 1   
    58    27    64 1   
    59    28    29 1   
    60    28    30 1   
    61    28    31 1   
    62    32    33 1   
    63    32    37 1   
    64    32    65 1   
    65    33    34 1   
    66    33    66 1   
    67    33    67 1   
    68    34    35 1   
    69    34    68 1   
    70    34    69 1   
    71    35    36 1   
    72    35    38 1   
    73    36    37 1   
    74    36    70 1   
    75    36    71 1   
    76    37    72 1   
    77    37    73 1   
    78    38    74 1   
    79    38    75 1   
    80    38    76 1   
    81    60    77 1   
@<TRIPOS>SUBSTRUCTURE
     1 6Q4         1 TEMP              0 ****  ****    0 ROOT
