@<TRIPOS>MOLECULE
6Q5
   80    84     1     0     0
SMALL
No Charge or Current Charge


@<TRIPOS>ATOM
      1 O3           3.4490     3.2310     0.0390 o          1 6Q5      -0.731000
      2 C28          3.3610     2.1690    -0.5620 c          1 6Q5       0.721000
      3 O2           3.1290     2.1190    -1.7630 o          1 6Q5      -0.731000
      4 C14          3.7630     0.8500     0.1960 c6         1 6Q5      -0.170000
      5 C15          3.2190     0.8620     1.6610 c6         1 6Q5      -0.039400
      6 C12          1.6830     1.0360     1.6960 c6         1 6Q5      -0.065400
      7 C4           0.8660     0.0220     0.8070 c6         1 6Q5       0.010200
      8 C22          0.7350    -1.2880     1.6770 c3         1 6Q5      -0.081100
      9 C1          -0.5630     0.6520     0.3670 c6         1 6Q5      -0.016000
     10 C16         -0.3410     1.9190    -0.5580 c3         1 6Q5      -0.095100
     11 C23          5.3240     0.7920     0.1790 c6         1 6Q5      -0.056400
     12 C27          5.9120    -0.5310     0.7090 c6         1 6Q5      -0.070400
     13 C24          5.3640    -1.7480    -0.0750 c6         1 6Q5      -0.057700
     14 C30          6.0510    -3.0480     0.4420 c3         1 6Q5      -0.083100
     15 C21          3.8000    -1.7880     0.0040 c6         1 6Q5      -0.050700
     16 C29          3.2160    -3.0220    -0.7560 c3         1 6Q5      -0.086100
     17 C10          3.1660    -0.4280    -0.5050 c6         1 6Q5       0.002500
     18 C7           1.6160    -0.4330    -0.4760 c2         1 6Q5      -0.043400
     19 C17          0.9370    -0.8950    -1.5460 c2         1 6Q5      -0.253200
     20 C11         -0.5780    -1.0150    -1.6530 c6         1 6Q5      -0.025200
     21 C2          -1.3760    -0.4700    -0.4200 c6         1 6Q5      -0.044700
     22 C3          -2.9060    -0.1570    -0.7400 c6         1 6Q5      -0.021000
     23 C19         -3.1110     0.9610    -1.8360 c3         1 6Q5      -0.078100
     24 C13         -3.6270    -1.4790    -1.2370 c6         1 6Q5      -0.069400
     25 C20         -5.2000    -1.4380    -1.2660 c6         1 6Q5      -0.108400
     26 C18         -5.7710    -1.0500     0.1220 c6         1 6Q5       0.174300
     27 O1          -7.2040    -1.0520     0.0440 oh         1 6Q5      -0.665000
     28 C9          -5.2090     0.3160     0.6860 c6         1 6Q5      -0.023000
     29 C25         -5.7830     1.5490    -0.0950 c3         1 6Q5      -0.078100
     30 C26         -5.7240     0.4760     2.1600 c3         1 6Q5      -0.078100
     31 C5          -3.6010     0.2390     0.6680 c6         1 6Q5      -0.048700
     32 C8          -2.8760     1.4610     1.3740 c6         1 6Q5      -0.067400
     33 C6          -1.3860     1.1160     1.6340 c6         1 6Q5      -0.071400
     34 H2           3.4960    -0.0480     2.2050 hc         1 6Q5       0.022700
     35 H3           3.6820     1.6820     2.2280 hc         1 6Q5       0.022700
     36 H4           1.3500     0.9300     2.7370 hc         1 6Q5       0.042700
     37 H5           1.4670     2.0790     1.4600 hc         1 6Q5       0.042700
     38 H6           0.0480    -1.1880     2.5200 hc         1 6Q5       0.024033
     39 H7           0.4090    -2.1520     1.0870 hc         1 6Q5       0.024033
     40 H8           1.6900    -1.5760     2.1240 hc         1 6Q5       0.024033
     41 H9          -1.2650     2.4570    -0.7650 hc         1 6Q5       0.046367
     42 H10          0.3050     2.6800    -0.1170 hc         1 6Q5       0.046367
     43 H11          0.1030     1.6630    -1.5250 hc         1 6Q5       0.046367
     44 H12          5.6790     0.9430    -0.8500 hc         1 6Q5       0.045200
     45 H13          5.7350     1.6290     0.7590 hc         1 6Q5       0.045200
     46 H14          7.0060    -0.4930     0.6180 hc         1 6Q5       0.019200
     47 H15          5.7000    -0.6420     1.7810 hc         1 6Q5       0.019200
     48 H16          5.6620    -1.6430    -1.1280 hc         1 6Q5       0.044700
     49 H17          5.7060    -3.3080     1.4500 hc         1 6Q5       0.019700
     50 H18          5.8570    -3.9030    -0.2160 hc         1 6Q5       0.019700
     51 H19          7.1400    -2.9290     0.4840 hc         1 6Q5       0.019700
     52 H20          3.5340    -1.9510     1.0530 hc         1 6Q5       0.037700
     53 H21          3.6140    -3.9680    -0.3730 hc         1 6Q5       0.022700
     54 H22          2.1300    -3.0950    -0.6370 hc         1 6Q5       0.022700
     55 H23          3.4370    -2.9740    -1.8290 hc         1 6Q5       0.022700
     56 H24          3.4630    -0.3740    -1.5620 hc         1 6Q5       0.070700
     57 H26          1.4800    -1.2290    -2.4310 ha         1 6Q5       0.168000
     58 H28         -0.8790    -0.5120    -2.5770 hc         1 6Q5       0.031700
     59 H29         -0.8340    -2.0720    -1.8070 hc         1 6Q5       0.031700
     60 H30         -1.4360    -1.3200     0.2690 hc         1 6Q5       0.033700
     61 H31         -2.2530     1.0850    -2.5010 hc         1 6Q5       0.032033
     62 H32         -3.9560     0.7490    -2.4970 hc         1 6Q5       0.032033
     63 H33         -3.3070     1.9450    -1.4010 hc         1 6Q5       0.032033
     64 H34         -3.2670    -1.7420    -2.2410 hc         1 6Q5       0.039700
     65 H35         -3.3300    -2.3190    -0.5930 hc         1 6Q5       0.039700
     66 H36         -5.5560    -0.7430    -2.0360 hc         1 6Q5       0.037200
     67 H37         -5.5760    -2.4280    -1.5570 hc         1 6Q5       0.037200
     68 H38         -5.4600    -1.8410     0.8210 h1         1 6Q5       0.022700
     69 H39         -7.4640    -1.9370    -0.2880 ho         1 6Q5       0.432000
     70 H40         -6.8560     1.6770     0.0960 hc         1 6Q5       0.032533
     71 H41         -5.2970     2.4840     0.2070 hc         1 6Q5       0.032533
     72 H42         -5.6780     1.4530    -1.1780 hc         1 6Q5       0.032533
     73 H43         -5.2820    -0.2780     2.8230 hc         1 6Q5       0.032533
     74 H44         -5.4960     1.4630     2.5770 hc         1 6Q5       0.032533
     75 H45         -6.8130     0.3650     2.2270 hc         1 6Q5       0.032533
     76 H46         -3.3870    -0.6130     1.3290 hc         1 6Q5       0.037700
     77 H47         -2.9650     2.3790     0.7820 hc         1 6Q5       0.035700
     78 H48         -3.3300     1.6870     2.3450 hc         1 6Q5       0.035700
     79 H49         -1.3800     0.3440     2.4090 hc         1 6Q5       0.037200
     80 H50         -0.9050     1.9890     2.0940 hc         1 6Q5       0.037200
@<TRIPOS>BOND
     1     1     2 1   
     2     2     3 1   
     3     2     4 1   
     4     4     5 1   
     5     4    11 1   
     6     4    17 1   
     7     5     6 1   
     8     5    34 1   
     9     5    35 1   
    10     6     7 1   
    11     6    36 1   
    12     6    37 1   
    13     7     8 1   
    14     7     9 1   
    15     7    18 1   
    16     8    38 1   
    17     8    39 1   
    18     8    40 1   
    19     9    10 1   
    20     9    21 1   
    21     9    33 1   
    22    10    41 1   
    23    10    42 1   
    24    10    43 1   
    25    11    12 1   
    26    11    44 1   
    27    11    45 1   
    28    12    13 1   
    29    12    46 1   
    30    12    47 1   
    31    13    14 1   
    32    13    15 1   
    33    13    48 1   
    34    14    49 1   
    35    14    50 1   
    36    14    51 1   
    37    15    16 1   
    38    15    17 1   
    39    15    52 1   
    40    16    53 1   
    41    16    54 1   
    42    16    55 1   
    43    17    18 1   
    44    17    56 1   
    45    18    19 2   
    46    19    20 1   
    47    19    57 1   
    48    20    21 1   
    49    20    58 1   
    50    20    59 1   
    51    21    22 1   
    52    21    60 1   
    53    22    23 1   
    54    22    24 1   
    55    22    31 1   
    56    23    61 1   
    57    23    62 1   
    58    23    63 1   
    59    24    25 1   
    60    24    64 1   
    61    24    65 1   
    62    25    26 1   
    63    25    66 1   
    64    25    67 1   
    65    26    27 1   
    66    26    28 1   
    67    26    68 1   
    68    27    69 1   
    69    28    29 1   
    70    28    30 1   
    71    28    31 1   
    72    29    70 1   
    73    29    71 1   
    74    29    72 1   
    75    30    73 1   
    76    30    74 1   
    77    30    75 1   
    78    31    32 1   
    79    31    76 1   
    80    32    33 1   
    81    32    77 1   
    82    32    78 1   
    83    33    79 1   
    84    33    80 1   
@<TRIPOS>SUBSTRUCTURE
     1 6Q5         1 TEMP              0 ****  ****    0 ROOT
