@<TRIPOS>MOLECULE
6Q5
   80    84     1     0     0
SMALL
bcc


@<TRIPOS>ATOM
      1 O3           3.4980     3.1570    -0.0410 o          1 6Q5      -0.836300
      2 C28          3.4430     2.0730    -0.6610 c          1 6Q5       0.931600
      3 O2           3.2760     1.9520    -1.8910 o          1 6Q5      -0.836300
      4 C14          3.7140     0.7820     0.1670 c6         1 6Q5      -0.170000
      5 C15          3.1420     0.9090     1.5770 c6         1 6Q5      -0.039400
      6 C12          1.6380     1.1460     1.5510 c6         1 6Q5      -0.065400
      7 C4           0.8270     0.1050     0.7480 c6         1 6Q5       0.010200
      8 C22          0.6550    -1.1250     1.6670 c3         1 6Q5      -0.081100
      9 C1          -0.5630     0.7330     0.3110 c6         1 6Q5      -0.016000
     10 C16         -0.3200     1.9920    -0.5430 c3         1 6Q5      -0.095100
     11 C23          5.2490     0.6680     0.1920 c6         1 6Q5      -0.056400
     12 C27          5.7620    -0.6450     0.7530 c6         1 6Q5      -0.070400
     13 C24          5.1680    -1.8410     0.0190 c6         1 6Q5      -0.057700
     14 C30          5.7540    -3.1360     0.5760 c3         1 6Q5      -0.083100
     15 C21          3.6340    -1.7970     0.0890 c6         1 6Q5      -0.050700
     16 C29          3.0070    -2.9970    -0.6130 c3         1 6Q5      -0.086100
     17 C10          3.0940    -0.4610    -0.4930 c6         1 6Q5       0.002500
     18 C7           1.5790    -0.3610    -0.4940 c2         1 6Q5      -0.043400
     19 C17          0.9130    -0.7130    -1.5920 c2         1 6Q5      -0.203200
     20 C11         -0.5660    -0.6620    -1.7840 c6         1 6Q5      -0.025200
     21 C2          -1.3400    -0.3270    -0.5090 c6         1 6Q5      -0.044700
     22 C3          -2.8670    -0.0810    -0.7580 c6         1 6Q5      -0.021000
     23 C19         -3.1680     1.0150    -1.7950 c3         1 6Q5      -0.078100
     24 C13         -3.4590    -1.3980    -1.2940 c6         1 6Q5      -0.069400
     25 C20         -4.9810    -1.4330    -1.2570 c6         1 6Q5      -0.108400
     26 C18         -5.5110    -1.1710     0.1430 c6         1 6Q5       0.151100
     27 O1          -6.9230    -1.2300     0.1770 oh         1 6Q5      -0.602800
     28 C9          -5.0500     0.1760     0.7260 c6         1 6Q5      -0.023000
     29 C25         -5.7400     1.3630     0.0450 c3         1 6Q5      -0.078100
     30 C26         -5.4500     0.1950     2.2110 c3         1 6Q5      -0.078100
     31 C5          -3.4990     0.2070     0.6300 c6         1 6Q5      -0.048700
     32 C8          -2.8410     1.4400     1.2480 c6         1 6Q5      -0.067400
     33 C6          -1.3760     1.1480     1.5470 c6         1 6Q5      -0.071400
     34 H2           3.3740     0.0150     2.1640 hc         1 6Q5       0.022700
     35 H3           3.6180     1.7430     2.0990 hc         1 6Q5       0.022700
     36 H4           1.2560     1.1700     2.5760 hc         1 6Q5       0.042700
     37 H5           1.4810     2.1460     1.1510 hc         1 6Q5       0.042700
     38 H6           0.1130    -0.8750     2.5790 hc         1 6Q5       0.024033
     39 H7           0.1390    -1.9510     1.1790 hc         1 6Q5       0.024033
     40 H8           1.6250    -1.5070     1.9830 hc         1 6Q5       0.024033
     41 H9          -1.2340     2.3380    -1.0170 hc         1 6Q5       0.046367
     42 H10          0.0460     2.8220     0.0620 hc         1 6Q5       0.046367
     43 H11          0.4210     1.8190    -1.3230 hc         1 6Q5       0.046367
     44 H12          5.6200     0.7700    -0.8340 hc         1 6Q5       0.045200
     45 H13          5.6620     1.5100     0.7550 hc         1 6Q5       0.045200
     46 H14          6.8540    -0.6740     0.6780 hc         1 6Q5       0.019200
     47 H15          5.5320    -0.7270     1.8210 hc         1 6Q5       0.019200
     48 H16          5.4580    -1.7650    -1.0390 hc         1 6Q5       0.044700
     49 H17          5.4060    -3.3160     1.5970 hc         1 6Q5       0.019700
     50 H18          5.4950    -4.0090    -0.0220 hc         1 6Q5       0.019700
     51 H19          6.8440    -3.0790     0.6080 hc         1 6Q5       0.019700
     52 H20          3.3730    -1.8700     1.1520 hc         1 6Q5       0.037700
     53 H21          3.3510    -3.9390    -0.1860 hc         1 6Q5       0.022700
     54 H22          1.9220    -2.9800    -0.5330 hc         1 6Q5       0.022700
     55 H23          3.2550    -3.0040    -1.6780 hc         1 6Q5       0.022700
     56 H24          3.4020    -0.4560    -1.5450 hc         1 6Q5       0.070700
     57 H26          1.4830    -1.0480    -2.4550 ha         1 6Q5       0.118000
     58 H28         -0.7730     0.0680    -2.5740 hc         1 6Q5       0.031700
     59 H29         -0.9050    -1.6210    -2.1880 hc         1 6Q5       0.031700
     60 H30         -1.3370    -1.2400     0.0950 hc         1 6Q5       0.033700
     61 H31         -2.4340     1.0290    -2.6010 hc         1 6Q5       0.032033
     62 H32         -4.1350     0.8550    -2.2700 hc         1 6Q5       0.032033
     63 H33         -3.1950     2.0180    -1.3730 hc         1 6Q5       0.032033
     64 H34         -3.1210    -1.5750    -2.3190 hc         1 6Q5       0.039700
     65 H35         -3.0770    -2.2360    -0.6980 hc         1 6Q5       0.039700
     66 H36         -5.4140    -0.7160    -1.9600 hc         1 6Q5       0.037200
     67 H37         -5.3200    -2.4190    -1.5900 hc         1 6Q5       0.037200
     68 H38         -5.0860    -1.9500     0.8000 h1         1 6Q5       0.022700
     69 H39         -7.1910    -2.0940    -0.1490 ho         1 6Q5       0.393000
     70 H40         -6.8000     1.3920     0.2990 hc         1 6Q5       0.032533
     71 H41         -5.3020     2.3040     0.3800 hc         1 6Q5       0.032533
     72 H42         -5.6700     1.3430    -1.0410 hc         1 6Q5       0.032533
     73 H43         -4.9120    -0.5710     2.7750 hc         1 6Q5       0.032533
     74 H44         -5.2420     1.1570     2.6780 hc         1 6Q5       0.032533
     75 H45         -6.5170     0.0070     2.3260 hc         1 6Q5       0.032533
     76 H46         -3.1800    -0.6420     1.2560 hc         1 6Q5       0.037700
     77 H47         -2.9310     2.3080     0.5910 hc         1 6Q5       0.035700
     78 H48         -3.3330     1.7180     2.1810 hc         1 6Q5       0.035700
     79 H49         -1.3570     0.3610     2.3040 hc         1 6Q5       0.037200
     80 H50         -0.9110     2.0230     2.0100 hc         1 6Q5       0.037200
@<TRIPOS>BOND
     1     1     2 1   
     2     2     3 1   
     3     2     4 1   
     4     4     5 1   
     5     4    11 1   
     6     4    17 1   
     7     5     6 1   
     8     5    34 1   
     9     5    35 1   
    10     6     7 1   
    11     6    36 1   
    12     6    37 1   
    13     7     8 1   
    14     7     9 1   
    15     7    18 1   
    16     8    38 1   
    17     8    39 1   
    18     8    40 1   
    19     9    10 1   
    20     9    21 1   
    21     9    33 1   
    22    10    41 1   
    23    10    42 1   
    24    10    43 1   
    25    11    12 1   
    26    11    44 1   
    27    11    45 1   
    28    12    13 1   
    29    12    46 1   
    30    12    47 1   
    31    13    14 1   
    32    13    15 1   
    33    13    48 1   
    34    14    49 1   
    35    14    50 1   
    36    14    51 1   
    37    15    16 1   
    38    15    17 1   
    39    15    52 1   
    40    16    53 1   
    41    16    54 1   
    42    16    55 1   
    43    17    18 1   
    44    17    56 1   
    45    18    19 2   
    46    19    20 1   
    47    19    57 1   
    48    20    21 1   
    49    20    58 1   
    50    20    59 1   
    51    21    22 1   
    52    21    60 1   
    53    22    23 1   
    54    22    24 1   
    55    22    31 1   
    56    23    61 1   
    57    23    62 1   
    58    23    63 1   
    59    24    25 1   
    60    24    64 1   
    61    24    65 1   
    62    25    26 1   
    63    25    66 1   
    64    25    67 1   
    65    26    27 1   
    66    26    28 1   
    67    26    68 1   
    68    27    69 1   
    69    28    29 1   
    70    28    30 1   
    71    28    31 1   
    72    29    70 1   
    73    29    71 1   
    74    29    72 1   
    75    30    73 1   
    76    30    74 1   
    77    30    75 1   
    78    31    32 1   
    79    31    76 1   
    80    32    33 1   
    81    32    77 1   
    82    32    78 1   
    83    33    79 1   
    84    33    80 1   
@<TRIPOS>SUBSTRUCTURE
     1 6Q5         1 TEMP              0 ****  ****    0 ROOT
