@<TRIPOS>MOLECULE
6Q6
   63    66     1     0     0
SMALL
No Charge or Current Charge


@<TRIPOS>ATOM
      1 N1          -3.4590    -0.2330     0.2410 n          1 6Q6      -0.404800
      2 C2          -5.6980    -0.4580    -0.8550 c6         1 6Q6      -0.088200
      3 C4          -4.7570     0.4460    -0.0180 c6         1 6Q6       0.094000
      4 C5          -3.6240    -1.5230     0.9690 c6         1 6Q6       0.094000
      5 C6          -7.0560     0.2380    -1.1340 c3         1 6Q6      -0.085100
      6 C7          -4.7080    -3.8460     0.9060 c3         1 6Q6      -0.085100
      7 C13          1.6850     2.2490    -0.6990 ca         1 6Q6      -0.088000
      8 C14          2.0680    -1.1630     0.8710 ca         1 6Q6       0.219100
      9 C15          2.1790    -1.4550    -1.5410 ca         1 6Q6       0.212100
     10 C16          0.0610     2.0430     1.1200 ca         1 6Q6      -0.097000
     11 C17          2.0070     3.5190    -0.2070 ca         1 6Q6       0.048100
     12 C18          0.4120     3.3260     1.5910 ca         1 6Q6      -0.098000
     13 C19          1.3940     4.0380     0.8960 ca         1 6Q6       0.044100
     14 C20          3.1680    -2.0330     1.0090 ca         1 6Q6      -0.278000
     15 C24          1.9430    -0.8070     3.3200 c3         1 6Q6       0.147900
     16 C8          -2.2650     0.1650    -0.4090 c          1 6Q6       0.600100
     17 C3          -5.8920    -1.8290    -0.1510 c6         1 6Q6      -0.070400
     18 C1          -4.5260    -2.4960     0.1650 c6         1 6Q6      -0.088200
     19 C9          -0.9490    -0.5500    -0.0420 c3         1 6Q6      -0.147400
     20 C10          0.3560     0.0950    -0.5870 c3         1 6Q6       0.070900
     21 C11          0.6930     1.4910    -0.0320 ca         1 6Q6      -0.043300
     22 O5           1.8560     5.2740     1.2150 os         1 6Q6      -0.348100
     23 C23          2.8260     5.5440     0.1410 c5         1 6Q6       0.373600
     24 O3           2.9360     4.3610    -0.7270 os         1 6Q6      -0.348100
     25 C12          1.5570    -0.8630    -0.4160 ca         1 6Q6      -0.190300
     26 C21          3.2700    -2.3180    -1.3920 ca         1 6Q6      -0.334000
     27 C22          3.7680    -2.6080    -0.1120 ca         1 6Q6       0.220100
     28 O6           4.8390    -3.4500     0.0960 os         1 6Q6      -0.339100
     29 C25          5.5310    -4.0950    -0.9870 c3         1 6Q6       0.148900
     30 O2           1.4710    -0.5910     1.9790 os         1 6Q6      -0.335100
     31 H1          -5.2300    -0.6300    -1.8340 hc         1 6Q6       0.056200
     32 H2          -5.2330     0.6790     0.9460 h1         1 6Q6       0.055700
     33 H3          -4.6020     1.4020    -0.5370 h1         1 6Q6       0.055700
     34 H4          -2.6620    -2.0090     1.1710 h1         1 6Q6       0.055700
     35 H5          -4.0870    -1.3200     1.9450 h1         1 6Q6       0.055700
     36 H6          -7.5940     0.4530    -0.2020 hc         1 6Q6       0.035533
     37 H7          -6.9120     1.1870    -1.6640 hc         1 6Q6       0.035533
     38 H8          -7.7030    -0.3930    -1.7550 hc         1 6Q6       0.035533
     39 H9          -5.2030    -3.7060     1.8750 hc         1 6Q6       0.035533
     40 H10         -5.3180    -4.5420     0.3170 hc         1 6Q6       0.035533
     41 H11         -3.7410    -4.3290     1.0910 hc         1 6Q6       0.035533
     42 H12          2.1920     1.8580    -1.5770 ha         1 6Q6       0.134000
     43 H13         -0.6950     1.4850     1.6640 ha         1 6Q6       0.115000
     44 H14         -0.0640     3.7490     2.4720 ha         1 6Q6       0.127000
     45 H15          3.5750    -2.2780     1.9830 ha         1 6Q6       0.135000
     46 H16          2.9810    -0.4660     3.4280 h1         1 6Q6       0.043367
     47 H17          1.3260    -0.2470     4.0330 h1         1 6Q6       0.043367
     48 H18          1.8890    -1.8700     3.5860 h1         1 6Q6       0.043367
     49 H19         -6.4600    -1.6890     0.7800 hc         1 6Q6       0.040700
     50 H20         -6.4940    -2.4930    -0.7870 hc         1 6Q6       0.040700
     51 H21         -4.0220    -2.7290    -0.7840 hc         1 6Q6       0.056200
     52 H22         -0.9190    -0.7110     1.0400 hc         1 6Q6       0.065200
     53 H23         -1.0430    -1.5780    -0.4080 hc         1 6Q6       0.065200
     54 H24          0.1660     0.2470    -1.6560 hc         1 6Q6       0.091700
     55 H25          2.4750     6.3960    -0.4540 h2         1 6Q6       0.059700
     56 H26          3.8050     5.7700     0.5800 h2         1 6Q6       0.059700
     57 H27          2.3000    -1.7190    -3.4230 ho         1 6Q6       0.467000
     58 H28          3.7230    -2.7560    -2.2750 ha         1 6Q6       0.119000
     59 H29          4.8510    -4.7430    -1.5540 h1         1 6Q6       0.042033
     60 H30          5.9640    -3.3540    -1.6710 h1         1 6Q6       0.042033
     61 H31          6.3480    -4.7170    -0.6000 h1         1 6Q6       0.042033
     62 O4           1.7370    -1.2100    -2.8050 oh         1 6Q6      -0.530100
     63 O1          -2.2790     1.0760    -1.2270 o          1 6Q6      -0.597100
@<TRIPOS>BOND
     1     1     3 1   
     2     1     4 1   
     3     1    16 1   
     4     2     3 1   
     5     2     5 1   
     6     2    17 1   
     7     2    31 1   
     8     3    32 1   
     9     3    33 1   
    10     4    18 1   
    11     4    34 1   
    12     4    35 1   
    13     5    36 1   
    14     5    37 1   
    15     5    38 1   
    16     6    18 1   
    17     6    39 1   
    18     6    40 1   
    19     6    41 1   
    20     7    11 ar  
    21     7    21 ar  
    22     7    42 1   
    23     8    14 ar  
    24     8    25 ar  
    25     8    30 1   
    26     9    25 ar  
    27     9    26 ar  
    28     9    62 1   
    29    10    12 ar  
    30    10    21 ar  
    31    10    43 1   
    32    11    13 ar  
    33    11    24 1   
    34    12    13 ar  
    35    12    44 1   
    36    13    22 1   
    37    14    27 ar  
    38    14    45 1   
    39    15    30 1   
    40    15    46 1   
    41    15    47 1   
    42    15    48 1   
    43    16    19 1   
    44    16    63 2   
    45    17    18 1   
    46    17    49 1   
    47    17    50 1   
    48    18    51 1   
    49    19    20 1   
    50    19    52 1   
    51    19    53 1   
    52    20    21 1   
    53    20    25 1   
    54    20    54 1   
    55    22    23 1   
    56    23    24 1   
    57    23    55 1   
    58    23    56 1   
    59    26    27 ar  
    60    26    58 1   
    61    27    28 1   
    62    28    29 1   
    63    29    59 1   
    64    29    60 1   
    65    29    61 1   
    66    57    62 1   
@<TRIPOS>SUBSTRUCTURE
     1 6Q6         1 TEMP              0 ****  ****    0 ROOT
