@<TRIPOS>MOLECULE
6Q6
   63    66     1     0     0
SMALL
abcg2


@<TRIPOS>ATOM
      1 N1          -3.3920    -0.1290     0.2570 n          1 6Q6      -0.404800
      2 C2          -5.4780    -0.5190    -0.9830 c6         1 6Q6      -0.088200
      3 C4          -4.6450     0.4690    -0.1700 c6         1 6Q6       0.094000
      4 C5          -3.5860    -1.3030     1.0890 c6         1 6Q6       0.094000
      5 C6          -6.8050     0.1040    -1.3930 c3         1 6Q6      -0.085100
      6 C7          -4.5980    -3.5930     1.2350 c3         1 6Q6      -0.085100
      7 C13          1.6250     2.1630    -0.6140 ca         1 6Q6      -0.088000
      8 C14          2.0080    -1.2680     0.8550 ca         1 6Q6       0.219100
      9 C15          2.1020    -1.4030    -1.5230 ca         1 6Q6       0.212100
     10 C16          0.0250     1.9660     1.1780 ca         1 6Q6      -0.097000
     11 C17          1.9450     3.4020    -0.1250 ca         1 6Q6       0.048100
     12 C18          0.3570     3.2360     1.6690 ca         1 6Q6      -0.098000
     13 C19          1.3260     3.9330     0.9950 ca         1 6Q6       0.044100
     14 C20          3.1010    -2.1170     0.9600 ca         1 6Q6      -0.278000
     15 C24          1.8680    -1.0470     3.2200 c3         1 6Q6       0.147900
     16 C8          -2.2350     0.1920    -0.3680 c          1 6Q6       0.600100
     17 C3          -5.6810    -1.8030    -0.1790 c6         1 6Q6      -0.070400
     18 C1          -4.3680    -2.3830     0.3410 c6         1 6Q6      -0.088200
     19 C9          -0.9860    -0.5670     0.0470 c3         1 6Q6      -0.147400
     20 C10          0.2950     0.0550    -0.5060 c3         1 6Q6       0.070900
     21 C11          0.6350     1.4240     0.0580 ca         1 6Q6      -0.043300
     22 O5           1.8520     5.1570     1.2630 os         1 6Q6      -0.348100
     23 C23          2.6540     5.4870     0.1380 c5         1 6Q6       0.373600
     24 O3           2.8720     4.2830    -0.5840 os         1 6Q6      -0.348100
     25 C12          1.4760    -0.8890    -0.3910 ca         1 6Q6      -0.190300
     26 C21          3.2030    -2.2620    -1.4470 ca         1 6Q6      -0.334000
     27 C22          3.6950    -2.6140    -0.2010 ca         1 6Q6       0.220100
     28 O6           4.7450    -3.4340    -0.0120 os         1 6Q6      -0.339100
     29 C25          5.3750    -4.0020    -1.1430 c3         1 6Q6       0.148900
     30 O2           1.3870    -0.7510     1.9260 os         1 6Q6      -0.335100
     31 H1          -4.9120    -0.7650    -1.8890 hc         1 6Q6       0.056200
     32 H2          -5.2030     0.7670     0.7260 h1         1 6Q6       0.055700
     33 H3          -4.4420     1.3730    -0.7400 h1         1 6Q6       0.055700
     34 H4          -2.6340    -1.6980     1.4350 h1         1 6Q6       0.055700
     35 H5          -4.1430    -1.0030     1.9840 h1         1 6Q6       0.055700
     36 H6          -7.3840     0.4090    -0.5180 hc         1 6Q6       0.035533
     37 H7          -6.6560     0.9870    -2.0170 hc         1 6Q6       0.035533
     38 H8          -7.4110    -0.6050    -1.9600 hc         1 6Q6       0.035533
     39 H9          -5.1770    -3.3210     2.1200 hc         1 6Q6       0.035533
     40 H10         -5.1490    -4.3710     0.7060 hc         1 6Q6       0.035533
     41 H11         -3.6550    -4.0250     1.5740 hc         1 6Q6       0.035533
     42 H12          2.1190     1.7630    -1.4920 ha         1 6Q6       0.134000
     43 H13         -0.7340     1.4070     1.7080 ha         1 6Q6       0.115000
     44 H14         -0.1310     3.6400     2.5460 ha         1 6Q6       0.127000
     45 H15          3.5090    -2.4080     1.9180 ha         1 6Q6       0.135000
     46 H16          2.8970    -0.7080     3.3610 h1         1 6Q6       0.043367
     47 H17          1.2250    -0.5140     3.9150 h1         1 6Q6       0.043367
     48 H18          1.8160    -2.1170     3.4410 h1         1 6Q6       0.043367
     49 H19         -6.3430    -1.5910     0.6710 hc         1 6Q6       0.040700
     50 H20         -6.1990    -2.5470    -0.7920 hc         1 6Q6       0.040700
     51 H21         -3.7600    -2.6910    -0.5200 hc         1 6Q6       0.056200
     52 H22         -0.9350    -0.6740     1.1300 hc         1 6Q6       0.065200
     53 H23         -1.0700    -1.5870    -0.3450 hc         1 6Q6       0.065200
     54 H24          0.1190     0.2110    -1.5710 hc         1 6Q6       0.091700
     55 H25          2.1280     6.2100    -0.4950 h2         1 6Q6       0.059700
     56 H26          3.6080     5.8960     0.4710 h2         1 6Q6       0.059700
     57 H27          2.1500    -1.4310    -3.4330 ho         1 6Q6       0.467000
     58 H28          3.6490    -2.6320    -2.3610 ha         1 6Q6       0.119000
     59 H29          4.6830    -4.6090    -1.7320 h1         1 6Q6       0.042033
     60 H30          5.8160    -3.2410    -1.7910 h1         1 6Q6       0.042033
     61 H31          6.1680    -4.6430    -0.7650 h1         1 6Q6       0.042033
     62 O4           1.6170    -1.0440    -2.7300 oh         1 6Q6      -0.530100
     63 O1          -2.1860     1.0580    -1.2330 o          1 6Q6      -0.597100
@<TRIPOS>BOND
     1     1     3 1   
     2     1     4 1   
     3     1    16 1   
     4     2     3 1   
     5     2     5 1   
     6     2    17 1   
     7     2    31 1   
     8     3    32 1   
     9     3    33 1   
    10     4    18 1   
    11     4    34 1   
    12     4    35 1   
    13     5    36 1   
    14     5    37 1   
    15     5    38 1   
    16     6    18 1   
    17     6    39 1   
    18     6    40 1   
    19     6    41 1   
    20     7    11 ar  
    21     7    21 ar  
    22     7    42 1   
    23     8    14 ar  
    24     8    25 ar  
    25     8    30 1   
    26     9    25 ar  
    27     9    26 ar  
    28     9    62 1   
    29    10    12 ar  
    30    10    21 ar  
    31    10    43 1   
    32    11    13 ar  
    33    11    24 1   
    34    12    13 ar  
    35    12    44 1   
    36    13    22 1   
    37    14    27 ar  
    38    14    45 1   
    39    15    30 1   
    40    15    46 1   
    41    15    47 1   
    42    15    48 1   
    43    16    19 1   
    44    16    63 2   
    45    17    18 1   
    46    17    49 1   
    47    17    50 1   
    48    18    51 1   
    49    19    20 1   
    50    19    52 1   
    51    19    53 1   
    52    20    21 1   
    53    20    25 1   
    54    20    54 1   
    55    22    23 1   
    56    23    24 1   
    57    23    55 1   
    58    23    56 1   
    59    26    27 ar  
    60    26    58 1   
    61    27    28 1   
    62    28    29 1   
    63    29    59 1   
    64    29    60 1   
    65    29    61 1   
    66    57    62 1   
@<TRIPOS>SUBSTRUCTURE
     1 6Q6         1 TEMP              0 ****  ****    0 ROOT
