@<TRIPOS>MOLECULE
6Q7
   59    62     1     0     0
SMALL
No Charge or Current Charge


@<TRIPOS>ATOM
      1 C4          -3.9690     2.1260    -0.1000 ca         1 6Q7      -0.111000
      2 C5          -5.8580     0.0610    -0.1850 ca         1 6Q7      -0.098500
      3 C6          -5.3350     2.4260    -0.2450 ca         1 6Q7      -0.098500
      4 C7           2.6260    -3.9800     0.6940 ca         1 6Q7      -0.106000
      5 C8           1.8650     2.0310     1.1380 ca         1 6Q7      -0.128500
      6 C10          3.1550     2.5560     0.9550 ca         1 6Q7      -0.011000
      7 C13         -1.5270    -0.8080     0.2660 cc         1 6Q7      -0.193000
      8 C15          0.8170    -1.8050     0.5130 ca         1 6Q7      -0.021000
      9 C17          1.3060    -4.2210     0.2470 ca         1 6Q7      -0.068300
     10 C20         -2.0830     0.4870     0.1550 cc         1 6Q7       0.362500
     11 C21         -0.1720    -0.6960     0.4110 cd         1 6Q7      -0.101000
     12 C24         -0.4000    -6.0300     0.7370 c3         1 6Q7      -0.083100
     13 C26          5.2070     4.5170    -1.2710 c3         1 6Q7      -0.337100
     14 C1           3.0310    -2.6870     1.0560 ca         1 6Q7      -0.113000
     15 C2           2.1380    -1.6110     0.9720 ca         1 6Q7      -0.097000
     16 C3          -4.4920    -0.2380    -0.0400 ca         1 6Q7      -0.111000
     17 C9           1.9940     0.9440    -1.0350 ca         1 6Q7      -0.128500
     18 C11          3.2850     1.4650    -1.2230 ca         1 6Q7      -0.011000
     19 C12          0.4210    -3.1180     0.1710 ca         1 6Q7      -0.091000
     20 C14         -3.5220     0.7890     0.0060 ca         1 6Q7      -0.180500
     21 C16         -6.3030     1.3980    -0.2900 ca         1 6Q7      -0.111600
     22 C18          1.2830     1.2130     0.1510 ca         1 6Q7       0.094800
     23 C19          3.8730     2.2690    -0.2240 ca         1 6Q7      -0.283500
     24 C23          0.3530    -5.6090    -1.6460 c3         1 6Q7      -0.083100
     25 C25          1.8920    -6.7340    -0.0110 c3         1 6Q7      -0.083100
     26 C27          0.8040    -5.6330    -0.1610 c3         1 6Q7       0.000300
     27 N28         -1.1630     1.4330     0.1710 nd         1 6Q7      -0.521800
     28 N29         -0.0020     0.7010     0.3380 na         1 6Q7       0.198000
     29 O30         -8.5840     0.7980    -0.4800 o          1 6Q7      -0.717500
     30 O31          6.2450     2.1160    -1.4410 o          1 6Q7      -0.532000
     31 O32          6.1100     3.2610     0.8450 o          1 6Q7      -0.532000
     32 O33         -8.1210     2.8940    -0.5330 o          1 6Q7      -0.717500
     33 S34          5.5270     2.9490    -0.4660 sy         1 6Q7       1.063500
     34 H1          -3.2600     2.9500    -0.0710 ha         1 6Q7       0.094000
     35 H2          -6.5740    -0.7570    -0.2160 ha         1 6Q7       0.129500
     36 H3          -5.6390     3.4680    -0.3230 ha         1 6Q7       0.129500
     37 H4           3.3560    -4.7780     0.7770 ha         1 6Q7       0.110000
     38 H5           1.3150     2.2560     2.0490 ha         1 6Q7       0.143500
     39 H6           3.5900     3.1850     1.7320 ha         1 6Q7       0.135500
     40 H7          -2.0980    -1.7260     0.2580 ha         1 6Q7       0.149000
     41 H8          -1.2470    -5.3470     0.6060 hc         1 6Q7       0.035256
     42 H9          -0.7530    -7.0400     0.4970 hc         1 6Q7       0.035256
     43 H10         -0.1140    -6.0140     1.7960 hc         1 6Q7       0.035256
     44 H11          4.5860     5.1230    -0.6020 h1         1 6Q7       0.101700
     45 H12          6.1670     5.0070    -1.4590 h1         1 6Q7       0.101700
     46 H13          4.6820     4.3170    -2.2110 h1         1 6Q7       0.101700
     47 H14          4.0450    -2.5200     1.4130 ha         1 6Q7       0.112000
     48 H15          2.4860    -0.6400     1.3030 ha         1 6Q7       0.121000
     49 H16         -4.2050    -1.2820     0.0350 ha         1 6Q7       0.094000
     50 H17          1.5450     0.3250    -1.8080 ha         1 6Q7       0.143500
     51 H18          3.8210     1.2420    -2.1450 ha         1 6Q7       0.135500
     52 H19         -0.5900    -3.2850    -0.1820 ha         1 6Q7       0.122000
     53 H20          1.1790    -5.2930    -2.2950 hc         1 6Q7       0.035256
     54 H21          0.0270    -6.6030    -1.9740 hc         1 6Q7       0.035256
     55 H22         -0.4830    -4.9190    -1.8060 hc         1 6Q7       0.035256
     56 H23          2.2330    -6.8140     1.0290 hc         1 6Q7       0.035256
     57 H24          1.4990    -7.7150    -0.3040 hc         1 6Q7       0.035256
     58 H25          2.7590    -6.5230    -0.6490 hc         1 6Q7       0.035256
     59 C22         -7.7820     1.7210    -0.4460 c          1 6Q7       0.710600
@<TRIPOS>BOND
     1     1     3 ar  
     2     1    20 ar  
     3     1    34 1   
     4     2    16 ar  
     5     2    21 ar  
     6     2    35 1   
     7     3    21 ar  
     8     3    36 1   
     9     4     9 ar  
    10     4    14 ar  
    11     4    37 1   
    12     5     6 ar  
    13     5    22 ar  
    14     5    38 1   
    15     6    23 ar  
    16     6    39 1   
    17     7    10 1   
    18     7    11 2   
    19     7    40 1   
    20     8    11 1   
    21     8    15 ar  
    22     8    19 ar  
    23     9    19 ar  
    24     9    26 1   
    25    10    20 1   
    26    10    27 2   
    27    11    28 1   
    28    12    26 1   
    29    12    41 1   
    30    12    42 1   
    31    12    43 1   
    32    13    33 1   
    33    13    44 1   
    34    13    45 1   
    35    13    46 1   
    36    14    15 ar  
    37    14    47 1   
    38    15    48 1   
    39    16    20 ar  
    40    16    49 1   
    41    17    18 ar  
    42    17    22 ar  
    43    17    50 1   
    44    18    23 ar  
    45    18    51 1   
    46    19    52 1   
    47    21    59 1   
    48    22    28 1   
    49    23    33 1   
    50    24    26 1   
    51    24    53 1   
    52    24    54 1   
    53    24    55 1   
    54    25    26 1   
    55    25    56 1   
    56    25    57 1   
    57    25    58 1   
    58    27    28 1   
    59    29    59 1   
    60    30    33 2   
    61    31    33 2   
    62    32    59 1   
@<TRIPOS>SUBSTRUCTURE
     1 6Q7         1 TEMP              0 ****  ****    0 ROOT
