@<TRIPOS>MOLECULE
6Q7
   59    62     1     0     0
SMALL
abcg2


@<TRIPOS>ATOM
      1 C4          -3.8170     2.1980     0.0730 ca         1 6Q7      -0.111000
      2 C5          -5.9120     0.3930     0.0620 ca         1 6Q7      -0.098500
      3 C6          -5.1250     2.6460     0.0010 ca         1 6Q7      -0.098500
      4 C7           2.4060    -4.0480     1.1660 ca         1 6Q7      -0.106000
      5 C8           1.4670     2.2330     0.6770 ca         1 6Q7      -0.128500
      6 C10          2.6960     2.8460     0.5200 ca         1 6Q7      -0.011000
      7 C13         -1.7100    -0.9780     0.4260 cc         1 6Q7      -0.193000
      8 C15          0.6410    -1.9620     0.6820 ca         1 6Q7      -0.021000
      9 C17          1.3470    -4.2610     0.2880 ca         1 6Q7      -0.068300
     10 C20         -2.1580     0.3450     0.2190 cc         1 6Q7       0.362500
     11 C21         -0.3390    -0.9030     0.4260 cd         1 6Q7      -0.101000
     12 C24         -0.2610    -6.1420     0.0340 c3         1 6Q7      -0.083100
     13 C26          4.9820     4.1520    -1.8190 c3         1 6Q7      -0.337100
     14 C1           2.5790    -2.8220     1.8000 ca         1 6Q7      -0.113000
     15 C2           1.7030    -1.7780     1.5690 ca         1 6Q7      -0.097000
     16 C3          -4.6050    -0.0640     0.1340 ca         1 6Q7      -0.111000
     17 C9           2.1900     0.4160    -0.7440 ca         1 6Q7      -0.128500
     18 C11          3.4230     1.0260    -0.8970 ca         1 6Q7      -0.011000
     19 C12          0.4760    -3.1950     0.0600 ca         1 6Q7      -0.091000
     20 C14         -3.5360     0.8320     0.1420 ca         1 6Q7      -0.180500
     21 C16         -6.1950     1.7540    -0.0050 ca         1 6Q7      -0.111600
     22 C18          1.2200     1.0170     0.0500 ca         1 6Q7       0.094800
     23 C19          3.6660     2.2370    -0.2650 ca         1 6Q7      -0.283500
     24 C23          1.0930    -5.3750    -1.9330 c3         1 6Q7      -0.083100
     25 C25          2.1740    -6.6310    -0.0860 c3         1 6Q7      -0.083100
     26 C27          1.1010    -5.5920    -0.4140 c3         1 6Q7       0.000300
     27 N28         -1.1330     1.1660     0.0960 nd         1 6Q7      -0.521800
     28 N29         -0.0390     0.4100     0.2160 na         1 6Q7       0.198000
     29 O30         -8.5240     1.3820    -0.0880 o          1 6Q7      -0.717500
     30 O31          6.2120     2.0210    -0.8820 o          1 6Q7      -0.532000
     31 O32          5.5100     3.8120     0.7390 o          1 6Q7      -0.532000
     32 O33         -7.7920     3.4870    -0.1310 o          1 6Q7      -0.717500
     33 S34          5.2410     3.0290    -0.4650 sy         1 6Q7       1.063500
     34 H1          -3.0060     2.9140     0.0810 ha         1 6Q7       0.094000
     35 H2          -6.7240    -0.3210     0.0570 ha         1 6Q7       0.129500
     36 H3          -5.3190     3.7090    -0.0500 ha         1 6Q7       0.129500
     37 H4           3.1140    -4.8390     1.3740 ha         1 6Q7       0.110000
     38 H5           0.7080     2.6920     1.2940 ha         1 6Q7       0.143500
     39 H6           2.8900     3.7860     1.0180 ha         1 6Q7       0.135500
     40 H7          -2.2970    -1.8640     0.6000 ha         1 6Q7       0.149000
     41 H8          -1.0770    -5.4590    -0.2090 hc         1 6Q7       0.035256
     42 H9          -0.4690    -7.0920    -0.4610 hc         1 6Q7       0.035256
     43 H10         -0.2810    -6.3140     1.1110 hc         1 6Q7       0.035256
     44 H11          4.2000     4.8620    -1.5600 h1         1 6Q7       0.101700
     45 H12          5.9220     4.6760    -1.9890 h1         1 6Q7       0.101700
     46 H13          4.7030     3.5880    -2.7060 h1         1 6Q7       0.101700
     47 H14          3.4040    -2.6880     2.4870 ha         1 6Q7       0.112000
     48 H15          1.8350    -0.8370     2.0860 ha         1 6Q7       0.121000
     49 H16         -4.4230    -1.1300     0.1790 ha         1 6Q7       0.094000
     50 H17          1.9890    -0.5170    -1.2510 ha         1 6Q7       0.143500
     51 H18          4.1760     0.5560    -1.5150 ha         1 6Q7       0.135500
     52 H19         -0.3510    -3.3140    -0.6310 ha         1 6Q7       0.122000
     53 H20          2.0580    -5.0040    -2.2820 hc         1 6Q7       0.035256
     54 H21          0.8890    -6.3170    -2.4470 hc         1 6Q7       0.035256
     55 H22          0.3290    -4.6620    -2.2430 hc         1 6Q7       0.035256
     56 H23          2.2110    -6.8650     0.9790 hc         1 6Q7       0.035256
     57 H24          1.9530    -7.5600    -0.6150 hc         1 6Q7       0.035256
     58 H25          3.1670    -6.3030    -0.3960 hc         1 6Q7       0.035256
     59 C22         -7.6320     2.2520    -0.0820 c          1 6Q7       0.710600
@<TRIPOS>BOND
     1     1     3 ar  
     2     1    20 ar  
     3     1    34 1   
     4     2    16 ar  
     5     2    21 ar  
     6     2    35 1   
     7     3    21 ar  
     8     3    36 1   
     9     4     9 ar  
    10     4    14 ar  
    11     4    37 1   
    12     5     6 ar  
    13     5    22 ar  
    14     5    38 1   
    15     6    23 ar  
    16     6    39 1   
    17     7    10 1   
    18     7    11 2   
    19     7    40 1   
    20     8    11 1   
    21     8    15 ar  
    22     8    19 ar  
    23     9    19 ar  
    24     9    26 1   
    25    10    20 1   
    26    10    27 2   
    27    11    28 1   
    28    12    26 1   
    29    12    41 1   
    30    12    42 1   
    31    12    43 1   
    32    13    33 1   
    33    13    44 1   
    34    13    45 1   
    35    13    46 1   
    36    14    15 ar  
    37    14    47 1   
    38    15    48 1   
    39    16    20 ar  
    40    16    49 1   
    41    17    18 ar  
    42    17    22 ar  
    43    17    50 1   
    44    18    23 ar  
    45    18    51 1   
    46    19    52 1   
    47    21    59 1   
    48    22    28 1   
    49    23    33 1   
    50    24    26 1   
    51    24    53 1   
    52    24    54 1   
    53    24    55 1   
    54    25    26 1   
    55    25    56 1   
    56    25    57 1   
    57    25    58 1   
    58    27    28 1   
    59    29    59 1   
    60    30    33 2   
    61    31    33 2   
    62    32    59 1   
@<TRIPOS>SUBSTRUCTURE
     1 6Q7         1 TEMP              0 ****  ****    0 ROOT
