@<TRIPOS>MOLECULE
6Q8
   48    51     1     0     0
SMALL
No Charge or Current Charge


@<TRIPOS>ATOM
      1 C13         -3.2870    -1.6450    -1.1620 ca         1 6Q8      -0.053000
      2 C15         -3.0670    -3.8690     0.0920 cc         1 6Q8      -0.194100
      3 C21          1.8110     0.3710     0.4820 c          1 6Q8       0.647700
      4 C24          3.9930    -0.7640    -0.2850 ca         1 6Q8      -0.047000
      5 C26          5.8650    -1.6280     1.0330 ca         1 6Q8      -0.129000
      6 C28          5.8640    -1.8960    -1.3830 ca         1 6Q8      -0.129000
      7 C01         -1.3110     2.2740    -3.1050 c3         1 6Q8      -0.051800
      8 C02         -0.8050     1.8980    -1.7350 cc         1 6Q8       0.005700
      9 N03          0.4000     1.2420    -1.5350 na         1 6Q8      -0.082000
     10 C04          0.6460     1.0390    -0.1720 cc         1 6Q8      -0.272600
     11 C05         -0.4340     1.5890     0.4900 cd         1 6Q8       0.040700
     12 C06         -1.3400     2.1070    -0.4850 cd         1 6Q8      -0.430500
     13 S07         -2.9210     2.9080    -0.1920 sy         1 6Q8       1.182600
     14 O08         -2.8150     3.9090     0.8710 o          1 6Q8      -0.538000
     15 O09         -3.6740     3.1340    -1.4280 o          1 6Q8      -0.538000
     16 N10         -3.7060     1.6350     0.5730 nu         1 6Q8      -0.855100
     17 C11         -3.5460     0.2680     0.3520 ca         1 6Q8       0.248000
     18 C12         -3.4550    -0.2610    -0.9580 ca         1 6Q8      -0.101000
     19 C14         -3.2260    -2.4630    -0.0290 ca         1 6Q8      -0.149000
     20 N16         -3.0830    -4.1360     1.4590 na         1 6Q8       0.016500
     21 N17         -3.2460    -2.9730     2.2260 nc         1 6Q8      -0.287400
     22 C18         -3.3270    -1.9790     1.2500 ca         1 6Q8      -0.066000
     23 C19         -3.4950    -0.6020     1.4630 ca         1 6Q8      -0.114000
     24 O22          1.9350     0.2400     1.6930 o          1 6Q8      -0.558100
     25 N23          2.7440    -0.0980    -0.4380 ns         1 6Q8      -0.159000
     26 C25          4.6270    -0.9630     0.9640 ca         1 6Q8      -0.110000
     27 C27          6.4790    -2.0930    -0.1390 ca         1 6Q8       0.153000
     28 C29          4.6260    -1.2320    -1.4540 ca         1 6Q8      -0.110000
     29 F            7.6680    -2.7300    -0.0690 f          1 6Q8      -0.177000
     30 H1          -3.2120    -2.0610    -2.1640 ha         1 6Q8       0.124000
     31 H2          -2.9500    -4.6640    -0.6380 h4         1 6Q8       0.232000
     32 H3           0.2060     2.1280     2.4840 hc         1 6Q8       0.062700
     33 H4          -1.5390     2.1550     2.2950 hc         1 6Q8       0.062700
     34 H5          -0.7030     0.6090     2.3970 hc         1 6Q8       0.062700
     35 H6           6.3500    -1.7800     1.9940 ha         1 6Q8       0.134500
     36 H7           6.3450    -2.2570    -2.2880 ha         1 6Q8       0.134500
     37 H8          -2.2310     1.7320    -3.3500 hc         1 6Q8       0.070033
     38 H9          -1.5190     3.3480    -3.1650 hc         1 6Q8       0.070033
     39 H10         -0.5740     2.0390    -3.8810 hc         1 6Q8       0.070033
     40 H11          1.0120     0.9600    -2.2930 hn         1 6Q8       0.350000
     41 H12         -3.7500     1.9250     1.5380 hn         1 6Q8       0.481000
     42 H13         -3.5200     0.3990    -1.8170 ha         1 6Q8       0.144000
     43 H14         -2.9930    -5.0470     1.9040 hn         1 6Q8       0.372000
     44 H15         -3.5740    -0.2140     2.4750 ha         1 6Q8       0.130000
     45 H16          2.4910     0.0640    -1.4010 hn         1 6Q8       0.147000
     46 H17          4.1840    -0.6080     1.8890 ha         1 6Q8       0.128500
     47 H18          4.1570    -1.0850    -2.4250 ha         1 6Q8       0.128500
     48 C20         -0.6330     1.6250     1.9910 c3         1 6Q8      -0.043800
@<TRIPOS>BOND
     1     1    18 ar  
     2     1    19 ar  
     3     1    30 1   
     4     2    19 2   
     5     2    20 1   
     6     2    31 1   
     7     3    10 1   
     8     3    24 2   
     9     3    25 1   
    10     4    25 1   
    11     4    26 ar  
    12     4    28 ar  
    13     5    26 ar  
    14     5    27 ar  
    15     5    35 1   
    16     6    27 ar  
    17     6    28 ar  
    18     6    36 1   
    19     7     8 1   
    20     7    37 1   
    21     7    38 1   
    22     7    39 1   
    23     8     9 1   
    24     8    12 2   
    25     9    10 1   
    26     9    40 1   
    27    10    11 2   
    28    11    12 1   
    29    11    48 1   
    30    12    13 1   
    31    13    14 2   
    32    13    15 2   
    33    13    16 1   
    34    16    17 1   
    35    16    41 1   
    36    17    18 ar  
    37    17    23 ar  
    38    18    42 1   
    39    19    22 ar  
    40    20    21 1   
    41    20    43 1   
    42    21    22 2   
    43    22    23 ar  
    44    23    44 1   
    45    25    45 1   
    46    26    46 1   
    47    27    29 1   
    48    28    47 1   
    49    32    48 1   
    50    33    48 1   
    51    34    48 1   
@<TRIPOS>SUBSTRUCTURE
     1 6Q8         1 TEMP              0 ****  ****    0 ROOT
