@<TRIPOS>MOLECULE
6Q8
   48    51     1     0     0
SMALL
bcc


@<TRIPOS>ATOM
      1 C13         -4.9790    -1.1390    -1.1990 ca         1 6Q8      -0.071000
      2 C15         -3.9420    -3.4870    -1.5870 cc         1 6Q8      -0.144100
      3 C21          2.3280     0.9390     0.4660 c          1 6Q8       0.714700
      4 C24          4.1140    -0.7160     0.0870 ca         1 6Q8       0.045600
      5 C26          6.4870    -0.5120     0.4550 ca         1 6Q8      -0.147000
      6 C28          5.4910    -2.6970     0.2430 ca         1 6Q8      -0.147000
      7 C01         -1.6230     1.0400    -2.5170 c3         1 6Q8      -0.051800
      8 C02         -0.8400     1.3170    -1.2840 cc         1 6Q8       0.056400
      9 N03          0.4290     0.9100    -1.1590 na         1 6Q8      -0.133100
     10 C04          0.9590     1.2790     0.0570 cc         1 6Q8      -0.221900
     11 C05         -0.0170     1.9460     0.7620 cd         1 6Q8       0.040700
     12 C06         -1.1510     1.9750    -0.0990 cd         1 6Q8      -0.430500
     13 S07         -2.7270     2.5670     0.3150 sy         1 6Q8       1.324200
     14 O08         -2.6090     3.6420     1.2840 o          1 6Q8      -0.608800
     15 O09         -3.4740     2.7800    -0.9110 o          1 6Q8      -0.608800
     16 N10         -3.5020     1.3250     1.1310 nu         1 6Q8      -0.661500
     17 C11         -3.6570     0.1030     0.4190 ca         1 6Q8       0.109600
     18 C12         -4.7690    -0.0070    -0.4660 ca         1 6Q8      -0.119000
     19 C14         -4.0710    -2.2100    -1.0490 ca         1 6Q8      -0.149000
     20 N16         -2.8560    -4.0060    -1.0120 na         1 6Q8       0.066800
     21 N17         -2.2380    -3.2190    -0.1440 nc         1 6Q8      -0.287400
     22 C18         -2.9720    -2.1030    -0.1510 ca         1 6Q8      -0.066000
     23 C19         -2.7590    -0.9150     0.5830 ca         1 6Q8      -0.132000
     24 O22          2.9470     1.6060     1.2760 o          1 6Q8      -0.558100
     25 N23          2.8360    -0.1780    -0.1310 ns         1 6Q8      -0.485100
     26 C25          5.2450     0.0770     0.2720 ca         1 6Q8      -0.128000
     27 C27          6.5920    -1.8890     0.4400 ca         1 6Q8       0.117900
     28 C29          4.2510    -2.1020     0.0730 ca         1 6Q8      -0.128000
     29 F            7.7970    -2.4560     0.6160 f          1 6Q8      -0.141900
     30 H1          -5.8270    -1.2160    -1.8670 ha         1 6Q8       0.142000
     31 H2          -4.5260    -4.0340    -2.3090 h4         1 6Q8       0.182000
     32 H3           0.0820     3.5650     2.1630 hc         1 6Q8       0.062700
     33 H4          -0.7850     2.1600     2.7520 hc         1 6Q8       0.062700
     34 H5           0.9700     2.1280     2.6500 hc         1 6Q8       0.062700
     35 H6           7.3640     0.1040     0.6000 ha         1 6Q8       0.152500
     36 H7           5.5900    -3.7750     0.2300 ha         1 6Q8       0.152500
     37 H8          -2.5400     0.5010    -2.2850 hc         1 6Q8       0.070033
     38 H9          -1.8990     1.9600    -3.0290 hc         1 6Q8       0.070033
     39 H10         -1.0400     0.4290    -3.2040 hc         1 6Q8       0.070033
     40 H11          0.9450     0.4800    -1.9130 hn         1 6Q8       0.299700
     41 H12         -3.1130     1.2100     2.0630 hn         1 6Q8       0.425800
     42 H13         -5.4560     0.8250    -0.5380 ha         1 6Q8       0.162000
     43 H14         -2.4840    -4.9280    -1.1860 hn         1 6Q8       0.321700
     44 H15         -1.9140    -0.8220     1.2540 ha         1 6Q8       0.148000
     45 H16          2.1830    -0.8050    -0.5760 hn         1 6Q8       0.313500
     46 H17          5.1770     1.1540     0.2630 ha         1 6Q8       0.146500
     47 H18          3.3800    -2.7290    -0.0710 ha         1 6Q8       0.146500
     48 C20          0.0690     2.4750     2.1550 c3         1 6Q8      -0.043800
@<TRIPOS>BOND
     1     1    18 ar  
     2     1    19 ar  
     3     1    30 1   
     4     2    19 2   
     5     2    20 1   
     6     2    31 1   
     7     3    10 1   
     8     3    24 2   
     9     3    25 1   
    10     4    25 1   
    11     4    26 ar  
    12     4    28 ar  
    13     5    26 ar  
    14     5    27 ar  
    15     5    35 1   
    16     6    27 ar  
    17     6    28 ar  
    18     6    36 1   
    19     7     8 1   
    20     7    37 1   
    21     7    38 1   
    22     7    39 1   
    23     8     9 1   
    24     8    12 2   
    25     9    10 1   
    26     9    40 1   
    27    10    11 2   
    28    11    12 1   
    29    11    48 1   
    30    12    13 1   
    31    13    14 2   
    32    13    15 2   
    33    13    16 1   
    34    16    17 1   
    35    16    41 1   
    36    17    18 ar  
    37    17    23 ar  
    38    18    42 1   
    39    19    22 ar  
    40    20    21 1   
    41    20    43 1   
    42    21    22 2   
    43    22    23 ar  
    44    23    44 1   
    45    25    45 1   
    46    26    46 1   
    47    27    29 1   
    48    28    47 1   
    49    32    48 1   
    50    33    48 1   
    51    34    48 1   
@<TRIPOS>SUBSTRUCTURE
     1 6Q8         1 TEMP              0 ****  ****    0 ROOT
