@<TRIPOS>MOLECULE
6Q9
   33    35     1     0     0
SMALL
No Charge or Current Charge


@<TRIPOS>ATOM
      1 C13         -2.7520    -0.0360    -1.3650 ca         1 6Q9      -0.067000
      2 C15         -2.3830    -0.0680     1.0420 ca         1 6Q9      -0.053000
      3 C17         -4.4040     0.9070    -0.1980 cc         1 6Q9      -0.196100
      4 O01          2.9410    -1.7150    -0.9740 o          1 6Q9      -0.540500
      5 S02          1.9580    -1.4750     0.0830 sy         1 6Q9       1.192600
      6 C03          1.9320     0.2570     0.4980 cc         1 6Q9      -0.474500
      7 C04          1.9350     0.7980     1.7570 cd         1 6Q9       0.006700
      8 C05          1.9870     0.1550     3.1210 c3         1 6Q9      -0.051800
      9 N06          1.9130     2.1810     1.5590 na         1 6Q9       0.014800
     10 N07          1.9060     2.5240     0.2120 nd         1 6Q9      -0.525800
     11 C08          1.9200     1.3500    -0.3840 cc         1 6Q9       0.355300
     12 C09          1.9290     1.2270    -1.8830 c3         1 6Q9      -0.134400
     13 C11         -0.7160    -1.0270    -0.4820 ca         1 6Q9       0.246000
     14 C12         -1.5300    -0.6900    -1.5860 ca         1 6Q9      -0.112000
     15 C14         -3.1450     0.2580    -0.0850 ca         1 6Q9      -0.149000
     16 C16         -1.1550    -0.7250     0.8300 ca         1 6Q9      -0.101000
     17 N18         -4.6830     0.9580    -1.5610 na         1 6Q9       0.017500
     18 N19         -3.6690     0.3750    -2.3340 nc         1 6Q9      -0.281400
     19 O20          1.8600    -2.3050     1.2860 o          1 6Q9      -0.540500
     20 H1          -2.7280     0.1710     2.0460 ha         1 6Q9       0.123000
     21 H2          -5.0920     1.3150     0.5360 h4         1 6Q9       0.231000
     22 H3           2.8600    -0.5020     3.2130 hc         1 6Q9       0.071367
     23 H4           2.0560     0.9050     3.9170 hc         1 6Q9       0.071367
     24 H5           1.0920    -0.4470     3.3140 hc         1 6Q9       0.071367
     25 H6           1.9090     2.8890     2.2900 hn         1 6Q9       0.373000
     26 H7           1.0400     0.6990    -2.2400 hc         1 6Q9       0.061367
     27 H8           1.9380     2.2150    -2.3580 hc         1 6Q9       0.061367
     28 H9           2.8180     0.6890    -2.2270 hc         1 6Q9       0.061367
     29 H10          0.7540    -1.8210    -1.6780 hn         1 6Q9       0.480000
     30 H11         -1.2150    -0.9250    -2.5990 ha         1 6Q9       0.131000
     31 H12         -0.5510    -1.0060     1.6850 ha         1 6Q9       0.143000
     32 H13         -5.5100     1.3590    -2.0000 hn         1 6Q9       0.373000
     33 N10          0.4960    -1.6750    -0.7130 nu         1 6Q9      -0.856100
@<TRIPOS>BOND
     1     1    14 ar  
     2     1    15 ar  
     3     1    18 2   
     4     2    15 ar  
     5     2    16 ar  
     6     2    20 1   
     7     3    15 2   
     8     3    17 1   
     9     3    21 1   
    10     4     5 2   
    11     5     6 1   
    12     5    19 2   
    13     5    33 1   
    14     6     7 2   
    15     6    11 1   
    16     7     8 1   
    17     7     9 1   
    18     8    22 1   
    19     8    23 1   
    20     8    24 1   
    21     9    10 1   
    22     9    25 1   
    23    10    11 2   
    24    11    12 1   
    25    12    26 1   
    26    12    27 1   
    27    12    28 1   
    28    13    14 ar  
    29    13    16 ar  
    30    13    33 1   
    31    14    30 1   
    32    16    31 1   
    33    17    18 1   
    34    17    32 1   
    35    29    33 1   
@<TRIPOS>SUBSTRUCTURE
     1 6Q9         1 TEMP              0 ****  ****    0 ROOT
