@<TRIPOS>MOLECULE
6Q9
   33    35     1     0     0
SMALL
abcg2


@<TRIPOS>ATOM
      1 C13         -2.5280     0.4070    -0.4180 ca         1 6Q9      -0.067000
      2 C15         -2.6420    -1.4650     1.1750 ca         1 6Q9      -0.053000
      3 C17         -4.3520     0.4580     0.8420 cc         1 6Q9      -0.196100
      4 O01          2.9380    -1.9270    -0.6250 o          1 6Q9      -0.540500
      5 S02          1.8190    -1.3380     0.0900 sy         1 6Q9       1.192600
      6 C03          1.9620     0.3840     0.0540 cc         1 6Q9      -0.474500
      7 C04          1.3790     1.2740     0.9480 cd         1 6Q9       0.006700
      8 C05          0.5750     1.0920     2.1830 c3         1 6Q9      -0.051800
      9 N06          1.6960     2.4760     0.4670 na         1 6Q9       0.014800
     10 N07          2.4160     2.4490    -0.6570 nd         1 6Q9      -0.525800
     11 C08          2.5890     1.1770    -0.9410 cc         1 6Q9       0.355300
     12 C09          3.3460     0.7510    -2.1480 c3         1 6Q9      -0.134400
     13 C11         -0.7750    -1.2010    -0.3590 ca         1 6Q9       0.246000
     14 C12         -1.2860    -0.0560    -0.9060 ca         1 6Q9      -0.112000
     15 C14         -3.1970    -0.2880     0.6280 ca         1 6Q9      -0.149000
     16 C16         -1.4510    -1.9090     0.6780 ca         1 6Q9      -0.101000
     17 N18         -4.2880     1.4680    -0.0270 na         1 6Q9       0.017500
     18 N19         -3.2170     1.4840    -0.8050 nc         1 6Q9      -0.281400
     19 O20          1.5300    -1.7450     1.4530 o          1 6Q9      -0.540500
     20 H1          -3.1510    -2.0100     1.9590 ha         1 6Q9       0.123000
     21 H2          -5.1780     0.3390     1.5240 h4         1 6Q9       0.231000
     22 H3           1.1680     0.6330     2.9710 hc         1 6Q9       0.071367
     23 H4           0.2090     2.0510     2.5450 hc         1 6Q9       0.071367
     24 H5          -0.2840     0.4500     1.9960 hc         1 6Q9       0.071367
     25 H6           1.4480     3.3650     0.8750 hn         1 6Q9       0.373000
     26 H7           2.7400     0.1230    -2.8010 hc         1 6Q9       0.061367
     27 H8           3.6570     1.6260    -2.7150 hc         1 6Q9       0.061367
     28 H9           4.2340     0.1810    -1.8810 hc         1 6Q9       0.061367
     29 H10          0.6380    -1.5640    -1.8040 hn         1 6Q9       0.480000
     30 H11         -0.7610     0.4800    -1.6870 ha         1 6Q9       0.131000
     31 H12         -1.0070    -2.8190     1.0560 ha         1 6Q9       0.143000
     32 H13         -4.9810     2.1950    -0.1330 hn         1 6Q9       0.373000
     33 N10          0.4660    -1.7260    -0.8160 nu         1 6Q9      -0.856100
@<TRIPOS>BOND
     1     1    14 ar  
     2     1    15 ar  
     3     1    18 2   
     4     2    15 ar  
     5     2    16 ar  
     6     2    20 1   
     7     3    15 2   
     8     3    17 1   
     9     3    21 1   
    10     4     5 2   
    11     5     6 1   
    12     5    19 2   
    13     5    33 1   
    14     6     7 2   
    15     6    11 1   
    16     7     8 1   
    17     7     9 1   
    18     8    22 1   
    19     8    23 1   
    20     8    24 1   
    21     9    10 1   
    22     9    25 1   
    23    10    11 2   
    24    11    12 1   
    25    12    26 1   
    26    12    27 1   
    27    12    28 1   
    28    13    14 ar  
    29    13    16 ar  
    30    13    33 1   
    31    14    30 1   
    32    16    31 1   
    33    17    18 1   
    34    17    32 1   
    35    29    33 1   
@<TRIPOS>SUBSTRUCTURE
     1 6Q9         1 TEMP              0 ****  ****    0 ROOT
