@<TRIPOS>MOLECULE
6QB
   49    52     1     0     0
SMALL
No Charge or Current Charge


@<TRIPOS>ATOM
      1 C4           7.4780    -1.1600    -0.2830 cc         1 6QB      -0.234000
      2 C5           8.8000    -0.9390     0.1240 cc         1 6QB       0.254900
      3 C8           4.3140    -0.5800    -0.4350 ca         1 6QB       0.391900
      4 C10          3.5120    -2.2130    -1.8200 ca         1 6QB       0.147900
      5 C15          0.4000     0.9020     0.4900 cc         1 6QB      -0.273000
      6 C20         -0.1940     0.0140    -1.6610 cd         1 6QB      -0.299200
      7 C21         -3.1440     2.0530    -0.3340 c3         1 6QB       0.149000
      8 C26         -5.4400     1.1330    -0.9640 ca         1 6QB      -0.102000
      9 C28         -6.3170    -0.9200     0.0120 ca         1 6QB       0.073000
     10 C1           7.3510     1.7560     1.8650 c3         1 6QB       0.064900
     11 N2           7.6490     0.5750     1.0400 na         1 6QB       0.088800
     12 C3           6.7290    -0.1920     0.3000 cd         1 6QB       0.245000
     13 N6           8.9540     0.0980     0.9240 nd         1 6QB      -0.524800
     14 N7           5.3700     0.0400     0.2250 nu         1 6QB      -0.922900
     15 N9           4.5680    -1.6560    -1.2020 nb         1 6QB      -0.211000
     16 C11          2.2160    -1.6950    -1.6680 ca         1 6QB      -0.252000
     17 C12          2.0430    -0.5710    -0.8300 ca         1 6QB       0.212800
     18 N13          3.1150    -0.0120    -0.2250 nb         1 6QB      -0.243000
     19 C14          0.7360     0.0890    -0.6420 cc         1 6QB      -0.056800
     20 C16         -0.8240     1.5310     0.5780 cd         1 6QB      -0.035400
     21 N17         -1.7820     1.4280    -0.4410 n          1 6QB      -0.270000
     22 C18         -1.5110     0.6720    -1.6100 c          1 6QB       0.547200
     23 O19         -2.3030     0.5720    -2.5390 o          1 6QB      -0.554000
     24 C23         -3.3300     3.1930     0.7180 c3         1 6QB       0.149600
     25 O24         -3.4170     2.6990     2.0690 oh         1 6QB      -0.657000
     26 C25         -4.2580     1.0060    -0.2040 ca         1 6QB      -0.054300
     27 C27         -6.4650     0.1750    -0.8570 ca         1 6QB      -0.077000
     28 C29         -5.1400    -1.0510     0.7730 ca         1 6QB       0.178000
     29 C30         -4.1180    -0.0960     0.6670 ca         1 6QB      -0.113000
     30 F31         -4.9840    -2.0990     1.6150 f          1 6QB      -0.162000
     31 H1           7.1550    -1.9590    -0.9370 ha         1 6QB       0.168000
     32 H2           9.6720    -1.5200    -0.1490 h4         1 6QB       0.037100
     33 H3           3.7070    -3.0850    -2.4420 h4         1 6QB       0.029100
     34 H4           1.1220     1.0080     1.2970 ha         1 6QB       0.215000
     35 H5          -0.0180    -0.5210    -2.5850 ha         1 6QB       0.211000
     36 H6          -3.3010     2.5560    -1.2970 h1         1 6QB       0.090700
     37 H7          -5.5670     1.9750    -1.6420 ha         1 6QB       0.120000
     38 H8           6.6470     1.4790     2.6600 h1         1 6QB       0.055367
     39 H9           8.2730     2.1400     2.3190 h1         1 6QB       0.055367
     40 H10          6.9060     2.5380     1.2380 h1         1 6QB       0.055367
     41 H11          5.0600     0.8450     0.7700 hn         1 6QB       0.515000
     42 H12          1.3810    -2.1760    -2.1670 ha         1 6QB       0.144000
     43 H13         -1.1100     2.1310     1.4330 h4         1 6QB       0.217000
     44 H14         -2.5040     3.9100     0.6210 h1         1 6QB       0.035700
     45 H15         -4.2540     3.7330     0.4680 h1         1 6QB       0.035700
     46 H16         -3.6550     3.4620     2.6420 ho         1 6QB       0.452000
     47 H17         -7.3720     0.2800    -1.4470 ha         1 6QB       0.132000
     48 H18         -3.2180    -0.2100     1.2660 ha         1 6QB       0.140000
     49 Cl1         -7.6110    -2.1120     0.1340 cl         1 6QB      -0.171000
@<TRIPOS>BOND
     1     1     2 1   
     2     1    12 2   
     3     1    31 1   
     4     2    13 2   
     5     2    32 1   
     6     3    14 1   
     7     3    15 ar  
     8     3    18 ar  
     9     4    15 ar  
    10     4    16 ar  
    11     4    33 1   
    12     5    19 1   
    13     5    20 2   
    14     5    34 1   
    15     6    19 2   
    16     6    22 1   
    17     6    35 1   
    18     7    21 1   
    19     7    24 1   
    20     7    26 1   
    21     7    36 1   
    22     8    26 ar  
    23     8    27 ar  
    24     8    37 1   
    25     9    27 ar  
    26     9    28 ar  
    27     9    49 1   
    28    10    11 1   
    29    10    38 1   
    30    10    39 1   
    31    10    40 1   
    32    11    12 1   
    33    11    13 1   
    34    12    14 1   
    35    14    41 1   
    36    16    17 ar  
    37    16    42 1   
    38    17    18 ar  
    39    17    19 1   
    40    20    21 1   
    41    20    43 1   
    42    21    22 1   
    43    22    23 2   
    44    24    25 1   
    45    24    44 1   
    46    24    45 1   
    47    25    46 1   
    48    26    29 ar  
    49    27    47 1   
    50    28    29 ar  
    51    28    30 1   
    52    29    48 1   
@<TRIPOS>SUBSTRUCTURE
     1 6QB         1 TEMP              0 ****  ****    0 ROOT
