@<TRIPOS>MOLECULE
6QB
   49    52     1     0     0
SMALL
abcg2


@<TRIPOS>ATOM
      1 C4           7.3190    -1.2200    -0.1960 cc         1 6QB      -0.234000
      2 C5           8.6150    -0.9750     0.2830 cc         1 6QB       0.254900
      3 C8           4.2550    -0.4760    -0.4170 ca         1 6QB       0.391900
      4 C10          3.5540    -2.0940    -1.8130 ca         1 6QB       0.147900
      5 C15          0.4200     0.8750     0.3490 cc         1 6QB      -0.273000
      6 C20         -0.2130     0.0490    -1.8110 cd         1 6QB      -0.299200
      7 C21         -3.0620     1.9870    -0.4010 c3         1 6QB       0.149000
      8 C26         -5.3910     1.1600    -0.8000 ca         1 6QB      -0.102000
      9 C28         -6.2320    -0.8490     0.1970 ca         1 6QB       0.073000
     10 C1           7.0950     1.7450     1.8470 c3         1 6QB       0.064900
     11 N2           7.4140     0.5560     1.0940 na         1 6QB       0.088800
     12 C3           6.5690    -0.1970     0.3560 cd         1 6QB       0.245000
     13 N6           8.6690     0.0900     1.0550 nd         1 6QB      -0.524800
     14 N7           5.2380     0.1480     0.2900 nu         1 6QB      -0.922900
     15 N9           4.5590    -1.5430    -1.1460 nb         1 6QB      -0.211000
     16 C11          2.2630    -1.6040    -1.7740 ca         1 6QB      -0.252000
     17 C12          2.0570    -0.4800    -0.9770 ca         1 6QB       0.212800
     18 N13          3.0470     0.0740    -0.2970 nb         1 6QB      -0.243000
     19 C14          0.7250     0.1480    -0.8290 cc         1 6QB      -0.056800
     20 C16         -0.8060     1.4380     0.4700 cd         1 6QB      -0.035400
     21 N17         -1.7440     1.3500    -0.5090 n          1 6QB      -0.270000
     22 C18         -1.5100     0.6570    -1.6970 c          1 6QB       0.547200
     23 O19         -2.3780     0.6010    -2.5630 o          1 6QB      -0.554000
     24 C23         -3.1440     3.0900     0.6460 c3         1 6QB       0.149600
     25 O24         -3.1890     2.5460     1.9400 oh         1 6QB      -0.657000
     26 C25         -4.1520     0.9600    -0.2030 ca         1 6QB      -0.054300
     27 C27         -6.4300     0.2660    -0.6020 ca         1 6QB      -0.077000
     28 C29         -4.9950    -1.0460     0.7850 ca         1 6QB       0.178000
     29 C30         -3.9580    -0.1550     0.6010 ca         1 6QB      -0.113000
     30 F31         -4.8050    -2.1240     1.5500 f          1 6QB      -0.162000
     31 H1           6.9830    -2.0130    -0.8360 ha         1 6QB       0.168000
     32 H2           9.5090    -1.5480     0.0860 h4         1 6QB       0.037100
     33 H3           3.7900    -2.9710    -2.4030 h4         1 6QB       0.029100
     34 H4           1.1330     0.9710     1.1520 ha         1 6QB       0.215000
     35 H5          -0.0160    -0.4740    -2.7370 ha         1 6QB       0.211000
     36 H6          -3.2350     2.4850    -1.3570 h1         1 6QB       0.090700
     37 H7          -5.5510     2.0210    -1.4370 ha         1 6QB       0.120000
     38 H8           6.3190     1.5480     2.5870 h1         1 6QB       0.055367
     39 H9           7.9940     2.0610     2.3670 h1         1 6QB       0.055367
     40 H10          6.7690     2.5540     1.1920 h1         1 6QB       0.055367
     41 H11          4.9280     0.9590     0.8060 hn         1 6QB       0.515000
     42 H12          1.4660    -2.0890    -2.3160 ha         1 6QB       0.144000
     43 H13         -1.0880     1.9650     1.3670 h4         1 6QB       0.217000
     44 H14         -2.3000     3.7770     0.5090 h1         1 6QB       0.035700
     45 H15         -4.0540     3.6580     0.4200 h1         1 6QB       0.035700
     46 H16         -3.2250     3.2710     2.5710 ho         1 6QB       0.452000
     47 H17         -7.3890     0.4260    -1.0740 ha         1 6QB       0.132000
     48 H18         -3.0080    -0.3560     1.0820 ha         1 6QB       0.140000
     49 CL1         -7.4930    -1.9930     0.4610 cl         1 6QB      -0.171000
@<TRIPOS>BOND
     1     1     2 1   
     2     1    12 2   
     3     1    31 1   
     4     2    13 2   
     5     2    32 1   
     6     3    14 1   
     7     3    15 ar  
     8     3    18 ar  
     9     4    15 ar  
    10     4    16 ar  
    11     4    33 1   
    12     5    19 1   
    13     5    20 2   
    14     5    34 1   
    15     6    19 2   
    16     6    22 1   
    17     6    35 1   
    18     7    21 1   
    19     7    24 1   
    20     7    26 1   
    21     7    36 1   
    22     8    26 ar  
    23     8    27 ar  
    24     8    37 1   
    25     9    27 ar  
    26     9    28 ar  
    27     9    49 1   
    28    10    11 1   
    29    10    38 1   
    30    10    39 1   
    31    10    40 1   
    32    11    12 1   
    33    11    13 1   
    34    12    14 1   
    35    14    41 1   
    36    16    17 ar  
    37    16    42 1   
    38    17    18 ar  
    39    17    19 1   
    40    20    21 1   
    41    20    43 1   
    42    21    22 1   
    43    22    23 2   
    44    24    25 1   
    45    24    44 1   
    46    24    45 1   
    47    25    46 1   
    48    26    29 ar  
    49    27    47 1   
    50    28    29 ar  
    51    28    30 1   
    52    29    48 1   
@<TRIPOS>SUBSTRUCTURE
     1 6QB         1 TEMP              0 ****  ****    0 ROOT
