@<TRIPOS>MOLECULE
6QC
   65    65     1     0     0
SMALL
No Charge or Current Charge


@<TRIPOS>ATOM
      1 C1           5.2580    -0.7890     1.6740 ca         1 6QC      -0.085000
      2 C2           6.5770    -1.2770     1.6810 ca         1 6QC      -0.122000
      3 C3           6.8720    -2.5150     1.0870 ca         1 6QC      -0.112000
      4 C9           1.3760     0.3240    -0.3100 c          1 6QC       0.642100
      5 C12          0.2310     1.7730    -2.0700 c3         1 6QC      -0.271000
      6 C20         -4.4750     4.4240     2.4240 c3         1 6QC      -0.087100
      7 C21         -2.2540     3.2950     2.9320 c3         1 6QC      -0.087100
      8 C22         -2.8460     0.8450    -0.8270 c          1 6QC       0.567100
      9 C27         -3.6960    -2.3470     1.0800 c3         1 6QC      -0.086100
     10 P13         -0.1910     3.3880    -1.2380 p5         1 6QC       1.365300
     11 C6           4.2260    -1.5390     1.0750 ca         1 6QC      -0.082300
     12 C4           5.8480    -3.2660     0.4850 ca         1 6QC      -0.122000
     13 C5           4.5290    -2.7800     0.4790 ca         1 6QC      -0.085000
     14 N16         -1.7880     3.1920    -0.9080 n7         1 6QC      -0.997500
     15 C17         -2.3690     2.1210    -0.0390 c3         1 6QC       0.179500
     16 C18         -3.5570     2.7010     0.7770 c3         1 6QC      -0.064400
     17 C25         -2.5090    -1.6440    -1.0800 c3         1 6QC       0.103000
     18 C26         -3.7890    -2.2920    -0.4720 c3         1 6QC      -0.074700
     19 C28         -4.0990    -3.6950    -1.1040 c3         1 6QC      -0.055700
     20 C29         -4.2040    -3.6510    -2.6510 c3         1 6QC      -0.085100
     21 O14         -0.0870     4.5200    -2.1970 o          1 6QC      -0.820000
     22 N11          1.3740     0.9950    -1.5080 ns         1 6QC      -0.440900
     23 O10          0.4150     0.1940     0.4330 o          1 6QC      -0.568000
     24 O8           2.6020    -0.2340    -0.1220 os         1 6QC      -0.465100
     25 H1           5.0370     0.1720     2.1340 ha         1 6QC       0.118000
     26 H2           7.3690    -0.6940     2.1450 ha         1 6QC       0.105500
     27 H3           7.8930    -2.8920     1.0920 ha         1 6QC       0.102000
     28 H4           2.0950    -1.8580     1.1000 h1         1 6QC       0.050700
     29 H5           2.6270    -0.4010     1.9660 h1         1 6QC       0.050700
     30 H6          -0.6520     1.1330    -2.1150 h1         1 6QC       0.057200
     31 H7           0.4840     2.0480    -3.1000 h1         1 6QC       0.057200
     32 H8          -2.6740     4.6110     1.2840 hc         1 6QC       0.064700
     33 H9          -4.2220     5.2370     3.1160 hc         1 6QC       0.027533
     34 H10         -5.1180     4.8400     1.6390 hc         1 6QC       0.027533
     35 H11         -5.0500     3.6710     2.9760 hc         1 6QC       0.027533
     36 H12         -1.2850     2.9850     2.5250 hc         1 6QC       0.027533
     37 H13         -2.0630     4.0860     3.6660 hc         1 6QC       0.027533
     38 H14         -2.6970     2.4400     3.4580 hc         1 6QC       0.027533
     39 H16         -2.9130    -3.0450     1.3990 hc         1 6QC       0.033367
     40 H17         -3.4680    -1.3630     1.5050 hc         1 6QC       0.033367
     41 H18          6.0760    -4.2250     0.0240 ha         1 6QC       0.105500
     42 H19          3.7420    -3.3660     0.0090 ha         1 6QC       0.118000
     43 H20         -2.2270     3.1770    -1.8250 hn         1 6QC       0.448000
     44 H21         -1.6180     1.7780     0.6850 h1         1 6QC       0.087700
     45 H22         -4.0500     1.8760     1.3080 hc         1 6QC       0.036700
     46 H23         -4.3010     3.0990     0.0750 hc         1 6QC       0.036700
     47 H25         -2.6240    -1.5220    -2.1640 h1         1 6QC       0.053700
     48 H26         -1.6500    -2.3060    -0.9080 h1         1 6QC       0.053700
     49 H27         -4.6310    -1.6320    -0.7170 hc         1 6QC       0.052700
     50 H28         -3.2620    -4.3620    -0.8610 hc         1 6QC       0.042700
     51 H30         -3.2420    -3.4030    -3.1130 hc         1 6QC       0.027700
     52 H31         -4.5040    -4.6280    -3.0490 hc         1 6QC       0.027700
     53 H32         -4.9470    -2.9100    -2.9720 hc         1 6QC       0.027700
     54 H34          2.2600     0.9890    -2.0010 hn         1 6QC       0.317500
     55 C8          -5.3790    -4.3530    -0.5230 c3         1 6QC      -0.085100
     56 H29         -5.6080    -5.2890    -1.0460 hc         1 6QC       0.027700
     57 H35         -5.2560    -4.6030     0.5370 hc         1 6QC       0.027700
     58 H36         -6.2430    -3.6850    -0.6270 hc         1 6QC       0.027700
     59 C7           2.7970    -1.0130     1.0690 c3         1 6QC       0.230900
     60 O23         -3.7340     0.8800    -1.6740 o          1 6QC      -0.653100
     61 C19         -3.1970     3.8050     1.8150 c3         1 6QC      -0.057700
     62 O15          0.5440     3.5680     0.0450 o          1 6QC      -0.820000
     63 N24         -2.1930    -0.3280    -0.5180 ns         1 6QC      -0.502900
     64 H15         -4.6450    -2.6630     1.5280 hc         1 6QC       0.033367
     65 H24         -1.3880    -0.2510     0.1020 hn         1 6QC       0.354500
@<TRIPOS>BOND
     1     1     2 ar  
     2     1    11 ar  
     3     1    25 1   
     4     2     3 ar  
     5     2    26 1   
     6     3    12 ar  
     7     3    27 1   
     8     4    22 1   
     9     4    23 2   
    10     4    24 1   
    11     5    10 1   
    12     5    22 1   
    13     5    30 1   
    14     5    31 1   
    15     6    33 1   
    16     6    34 1   
    17     6    35 1   
    18     6    61 1   
    19     7    36 1   
    20     7    37 1   
    21     7    38 1   
    22     7    61 1   
    23     8    15 1   
    24     8    60 2   
    25     8    63 1   
    26     9    18 1   
    27     9    39 1   
    28     9    40 1   
    29     9    64 1   
    30    10    14 1   
    31    10    21 1   
    32    10    62 1   
    33    11    13 ar  
    34    11    59 1   
    35    12    13 ar  
    36    12    41 1   
    37    13    42 1   
    38    14    15 1   
    39    14    43 1   
    40    15    16 1   
    41    15    44 1   
    42    16    45 1   
    43    16    46 1   
    44    16    61 1   
    45    17    18 1   
    46    17    47 1   
    47    17    48 1   
    48    17    63 1   
    49    18    19 1   
    50    18    49 1   
    51    19    20 1   
    52    19    50 1   
    53    19    55 1   
    54    20    51 1   
    55    20    52 1   
    56    20    53 1   
    57    22    54 1   
    58    24    59 1   
    59    28    59 1   
    60    29    59 1   
    61    32    61 1   
    62    55    56 1   
    63    55    57 1   
    64    55    58 1   
    65    63    65 1   
@<TRIPOS>SUBSTRUCTURE
     1 6QC         1 TEMP              0 ****  ****    0 ROOT
