@<TRIPOS>MOLECULE
6QC
   65    65     1     0     0
SMALL
abcg2


@<TRIPOS>ATOM
      1 C1           4.9840    -1.5510     1.9030 ca         1 6QC      -0.085000
      2 C2           6.3480    -1.5890     2.1630 ca         1 6QC      -0.122000
      3 C3           7.2250    -2.0700     1.2000 ca         1 6QC      -0.112000
      4 C9           1.5280    -0.4890    -0.7440 c          1 6QC       0.642100
      5 C12          0.2080     1.2910    -1.7490 c3         1 6QC      -0.271000
      6 C20         -4.6400     5.3730     1.6400 c3         1 6QC      -0.087100
      7 C21         -2.6780     4.1200     2.5840 c3         1 6QC      -0.087100
      8 C22         -3.4120     0.9770    -0.4680 c          1 6QC       0.567100
      9 C27         -2.9770    -2.6270     1.1360 c3         1 6QC      -0.086100
     10 P13         -0.1630     2.4880    -0.3830 p5         1 6QC       1.365300
     11 C6           4.4840    -1.9940     0.6840 ca         1 6QC      -0.082300
     12 C4           6.7340    -2.5140    -0.0220 ca         1 6QC      -0.122000
     13 C5           5.3700    -2.4750    -0.2760 ca         1 6QC      -0.085000
     14 N16         -1.8150     2.8340    -0.5460 n7         1 6QC      -0.997500
     15 C17         -2.8580     2.2160     0.2420 c3         1 6QC       0.179500
     16 C18         -3.9610     3.2050     0.5980 c3         1 6QC      -0.064400
     17 C25         -2.8970    -1.3650    -1.0240 c3         1 6QC       0.103000
     18 C26         -3.7030    -2.3600    -0.1800 c3         1 6QC      -0.074700
     19 C28         -3.9740    -3.6540    -0.9690 c3         1 6QC      -0.055700
     20 C29         -4.7280    -3.3960    -2.2740 c3         1 6QC      -0.085100
     21 O14          0.6390     3.7340    -0.6620 o          1 6QC      -0.820000
     22 N11          1.4680     0.6150    -1.5110 ns         1 6QC      -0.440900
     23 O10          0.5940    -1.2110    -0.4590 o          1 6QC      -0.568000
     24 O8           2.7920    -0.7360    -0.3640 os         1 6QC      -0.465100
     25 H1           4.3040    -1.1770     2.6590 ha         1 6QC       0.118000
     26 H2           6.7250    -1.2440     3.1170 ha         1 6QC       0.105500
     27 H3           8.2880    -2.1030     1.4020 ha         1 6QC       0.102000
     28 H4           2.6970    -2.8050    -0.1800 h1         1 6QC       0.050700
     29 H5           2.4380    -1.9050     1.3180 h1         1 6QC       0.050700
     30 H6          -0.5780     0.5430    -1.8340 h1         1 6QC       0.057200
     31 H7           0.2610     1.8060    -2.7110 h1         1 6QC       0.057200
     32 H8          -2.7900     4.9930     0.6430 hc         1 6QC       0.064700
     33 H9          -4.3090     6.2970     2.1160 hc         1 6QC       0.027533
     34 H10         -5.1900     5.6460     0.7370 hc         1 6QC       0.027533
     35 H11         -5.3440     4.8870     2.3210 hc         1 6QC       0.027533
     36 H12         -1.7660     3.5660     2.3570 hc         1 6QC       0.027533
     37 H13         -2.3840     5.0280     3.1150 hc         1 6QC       0.027533
     38 H14         -3.2770     3.5150     3.2700 hc         1 6QC       0.027533
     39 H16         -2.0250    -3.1350     0.9600 hc         1 6QC       0.033367
     40 H17         -2.7610    -1.6960     1.6610 hc         1 6QC       0.033367
     41 H18          7.4120    -2.8930    -0.7750 ha         1 6QC       0.105500
     42 H19          4.9920    -2.8290    -1.2280 ha         1 6QC       0.118000
     43 H20         -2.1290     3.3570    -1.3510 hn         1 6QC       0.448000
     44 H21         -2.3900     1.8760     1.1680 h1         1 6QC       0.087700
     45 H22         -4.6950     2.6960     1.2340 hc         1 6QC       0.036700
     46 H23         -4.4970     3.5020    -0.3090 hc         1 6QC       0.036700
     47 H25         -3.4140    -1.1420    -1.9550 h1         1 6QC       0.053700
     48 H26         -1.9340    -1.8060    -1.2860 h1         1 6QC       0.053700
     49 H27         -4.6730    -1.8960     0.0450 hc         1 6QC       0.052700
     50 H28         -3.0010    -4.0970    -1.2210 hc         1 6QC       0.042700
     51 H30         -4.1620    -2.7970    -2.9860 hc         1 6QC       0.027700
     52 H31         -4.9670    -4.3390    -2.7690 hc         1 6QC       0.027700
     53 H32         -5.6730    -2.8810    -2.0810 hc         1 6QC       0.027700
     54 H34          2.3030     1.1760    -1.5750 hn         1 6QC       0.317500
     55 C8          -4.7540    -4.6720    -0.1400 c3         1 6QC      -0.085100
     56 H29         -4.9560    -5.5710    -0.7260 hc         1 6QC       0.027700
     57 H35         -4.2190    -4.9840     0.7560 hc         1 6QC       0.027700
     58 H36         -5.7170    -4.2600     0.1720 hc         1 6QC       0.027700
     59 C7           3.0150    -1.9300     0.3920 c3         1 6QC       0.230900
     60 O23         -4.4510     0.9890    -1.1180 o          1 6QC      -0.653100
     61 C19         -3.4620     4.4570     1.3210 c3         1 6QC      -0.057700
     62 O15          0.0070     1.7390     0.9200 o          1 6QC      -0.820000
     63 N24         -2.6350    -0.1130    -0.3490 ns         1 6QC      -0.502900
     64 H15         -3.5640    -3.2440     1.8150 hc         1 6QC       0.033367
     65 H24         -1.7690    -0.0290     0.1640 hn         1 6QC       0.354500
@<TRIPOS>BOND
     1     1     2 ar  
     2     1    11 ar  
     3     1    25 1   
     4     2     3 ar  
     5     2    26 1   
     6     3    12 ar  
     7     3    27 1   
     8     4    22 1   
     9     4    23 2   
    10     4    24 1   
    11     5    10 1   
    12     5    22 1   
    13     5    30 1   
    14     5    31 1   
    15     6    33 1   
    16     6    34 1   
    17     6    35 1   
    18     6    61 1   
    19     7    36 1   
    20     7    37 1   
    21     7    38 1   
    22     7    61 1   
    23     8    15 1   
    24     8    60 2   
    25     8    63 1   
    26     9    18 1   
    27     9    39 1   
    28     9    40 1   
    29     9    64 1   
    30    10    14 1   
    31    10    21 1   
    32    10    62 1   
    33    11    13 ar  
    34    11    59 1   
    35    12    13 ar  
    36    12    41 1   
    37    13    42 1   
    38    14    15 1   
    39    14    43 1   
    40    15    16 1   
    41    15    44 1   
    42    16    45 1   
    43    16    46 1   
    44    16    61 1   
    45    17    18 1   
    46    17    47 1   
    47    17    48 1   
    48    17    63 1   
    49    18    19 1   
    50    18    49 1   
    51    19    20 1   
    52    19    50 1   
    53    19    55 1   
    54    20    51 1   
    55    20    52 1   
    56    20    53 1   
    57    22    54 1   
    58    24    59 1   
    59    28    59 1   
    60    29    59 1   
    61    32    61 1   
    62    55    56 1   
    63    55    57 1   
    64    55    58 1   
    65    63    65 1   
@<TRIPOS>SUBSTRUCTURE
     1 6QC         1 TEMP              0 ****  ****    0 ROOT
