@<TRIPOS>MOLECULE
6QE
   53    56     1     0     0
SMALL
abcg2


@<TRIPOS>ATOM
      1 C1          -1.3300     5.2850     0.8570 c3         1 6QE      -0.134400
      2 C2          -2.1970     4.1740     0.3860 cc         1 6QE       0.285300
      3 O4          -3.9870     3.0900    -0.0390 os         1 6QE      -0.055700
      4 C8          -3.5850    -1.2530    -0.1880 ca         1 6QE       0.124100
      5 C9          -3.8590    -1.7690    -1.4500 ca         1 6QE      -0.190000
      6 C10         -4.0550    -3.1360    -1.6110 ca         1 6QE      -0.061000
      7 C11         -3.9820    -4.0070    -0.5370 ca         1 6QE      -0.162000
      8 C12         -3.7040    -3.4830     0.7120 ca         1 6QE       0.168000
      9 C14         -3.5060    -2.1310     0.8910 ca         1 6QE       0.097000
     10 C16         -1.7980     2.9140    -0.1580 cc         1 6QE      -0.137000
     11 C19          1.1890     0.6340    -0.1460 ca         1 6QE      -0.094500
     12 C20          2.1600     1.4200    -0.7600 ca         1 6QE      -0.093300
     13 C21          3.5500     0.8850    -0.9740 c3         1 6QE       0.269100
     14 C27          3.5320    -2.2530     1.7760 c3         1 6QE      -0.042100
     15 C30          1.8180     2.7010    -1.1710 ca         1 6QE      -0.094500
     16 C31          0.5320     3.1890    -0.9830 ca         1 6QE      -0.098500
     17 N3          -3.4940     4.2560     0.4530 nd         1 6QE      -0.349300
     18 C5          -2.9800     2.2930    -0.3990 cd         1 6QE       0.171300
     19 C6          -3.3140     0.9660    -0.9710 c3         1 6QE       0.126300
     20 O7          -3.3790     0.0430     0.1060 os         1 6QE      -0.321100
     21 F13         -3.6170    -4.2850     1.7770 f          1 6QE      -0.156000
     22 F15         -3.2290    -1.6520     2.1080 f          1 6QE      -0.148000
     23 C17         -0.4410     2.4050    -0.3670 ca         1 6QE      -0.009000
     24 C18         -0.0920     1.1180     0.0520 ca         1 6QE      -0.098500
     25 N22          4.1330     0.4830     0.3010 n7         1 6QE      -0.904300
     26 S23          5.2940    -0.6880     0.3570 s6         1 6QE       1.229100
     27 O24          6.0390    -0.7430    -0.8970 o          1 6QE      -0.542500
     28 O25          6.0270    -0.4660     1.5970 o          1 6QE      -0.542500
     29 C26          4.3510    -2.1800     0.5140 cx         1 6QE      -0.373000
     30 C28          3.8520    -2.8080    -0.7550 cx         1 6QE      -0.076900
     31 C29          5.0040    -3.4180    -0.0270 cx         1 6QE      -0.076900
     32 H1          -0.5200     4.9020     1.4780 hc         1 6QE       0.059367
     33 H2          -0.8760     5.8110     0.0180 hc         1 6QE       0.059367
     34 H3          -1.9040     6.0060     1.4360 hc         1 6QE       0.059367
     35 H4          -3.9250    -1.1220    -2.3130 ha         1 6QE       0.125000
     36 H5          -4.2700    -3.5230    -2.5970 ha         1 6QE       0.124000
     37 H6          -4.1330    -5.0710    -0.6590 ha         1 6QE       0.140000
     38 H7           1.4350    -0.3650     0.1910 ha         1 6QE       0.118500
     39 H8           3.5040     0.0140    -1.6280 h1         1 6QE       0.055200
     40 H9           4.1680     1.6300    -1.4810 h1         1 6QE       0.055200
     41 H10          2.7990    -1.4480     1.8290 hc         1 6QE       0.051033
     42 H11          2.9890    -3.1970     1.7970 hc         1 6QE       0.051033
     43 H12          4.1600    -2.2130     2.6640 hc         1 6QE       0.051033
     44 H13          2.5590     3.3290    -1.6510 ha         1 6QE       0.118500
     45 H14          0.2890     4.1850    -1.3320 ha         1 6QE       0.123500
     46 H15         -4.2670     1.0130    -1.5060 h1         1 6QE       0.064200
     47 H16         -2.5360     0.6790    -1.6850 h1         1 6QE       0.064200
     48 H17         -0.8210     0.5000     0.5600 ha         1 6QE       0.123500
     49 H18          4.3410     1.2470     0.9340 hn         1 6QE       0.497000
     50 H19          2.8810    -3.2820    -0.6930 hc         1 6QE       0.086950
     51 H20          4.0560    -2.3320    -1.7050 hc         1 6QE       0.086950
     52 H21          5.9830    -3.3460    -0.4800 hc         1 6QE       0.086950
     53 H22          4.8410    -4.3220     0.5460 hc         1 6QE       0.086950
@<TRIPOS>BOND
     1     1     2 1   
     2     1    32 1   
     3     1    33 1   
     4     1    34 1   
     5     2    10 1   
     6     2    17 2   
     7     3    17 1   
     8     3    18 1   
     9     4     5 ar  
    10     4     9 ar  
    11     4    20 1   
    12     5     6 ar  
    13     5    35 1   
    14     6     7 ar  
    15     6    36 1   
    16     7     8 ar  
    17     7    37 1   
    18     8     9 ar  
    19     8    21 1   
    20     9    22 1   
    21    10    18 2   
    22    10    23 1   
    23    11    12 ar  
    24    11    24 ar  
    25    11    38 1   
    26    12    13 1   
    27    12    15 ar  
    28    13    25 1   
    29    13    39 1   
    30    13    40 1   
    31    14    29 1   
    32    14    41 1   
    33    14    42 1   
    34    14    43 1   
    35    15    16 ar  
    36    15    44 1   
    37    16    23 ar  
    38    16    45 1   
    39    18    19 1   
    40    19    20 1   
    41    19    46 1   
    42    19    47 1   
    43    23    24 ar  
    44    24    48 1   
    45    25    26 1   
    46    25    49 1   
    47    26    27 2   
    48    26    28 2   
    49    26    29 1   
    50    29    30 1   
    51    29    31 1   
    52    30    31 1   
    53    30    50 1   
    54    30    51 1   
    55    31    52 1   
    56    31    53 1   
@<TRIPOS>SUBSTRUCTURE
     1 6QE         1 TEMP              0 ****  ****    0 ROOT
