@<TRIPOS>MOLECULE
6QE
   53    56     1     0     0
SMALL
No Charge or Current Charge


@<TRIPOS>ATOM
      1 C1          -1.1970     5.4700     0.2880 c3         1 6QE      -0.134400
      2 C2          -2.1890     4.3940    -0.0600 cc         1 6QE       0.285300
      3 O4          -4.0560     3.3840    -0.5130 os         1 6QE      -0.055700
      4 C8          -4.2280    -1.0620     0.0250 ca         1 6QE       0.124100
      5 C9          -4.2370    -1.7350    -1.2190 ca         1 6QE      -0.190000
      6 C10         -4.6160    -3.0880    -1.2900 ca         1 6QE      -0.061000
      7 C11         -4.9890    -3.7770    -0.1240 ca         1 6QE      -0.162000
      8 C12         -4.9820    -3.1140     1.1130 ca         1 6QE       0.168000
      9 C14         -4.6030    -1.7610     1.1920 ca         1 6QE       0.097000
     10 C16         -1.8690     3.0190    -0.1940 cc         1 6QE      -0.137000
     11 C19          0.7680     0.2910     0.0990 ca         1 6QE      -0.094500
     12 C20          1.9170     0.9470    -0.3760 ca         1 6QE      -0.093300
     13 C21          3.2480     0.2110    -0.4410 c3         1 6QE       0.269100
     14 C27          4.1950    -3.0800     0.8390 c3         1 6QE      -0.042100
     15 C30          1.8170     2.2890    -0.7860 ca         1 6QE      -0.094500
     16 C31          0.5840     2.9610    -0.7240 ca         1 6QE      -0.098500
     17 N3          -3.4740     4.6610    -0.2140 nd         1 6QE      -0.349300
     18 C5          -3.0640     2.4380    -0.5230 cd         1 6QE       0.171300
     19 C6          -3.4330     1.0500    -0.9910 c3         1 6QE       0.126300
     20 O7          -3.8590     0.2660     0.1400 os         1 6QE      -0.321100
     21 F13         -5.3410    -3.7880     2.2300 f          1 6QE      -0.156000
     22 F15         -4.5980    -1.1310     2.3920 f          1 6QE      -0.148000
     23 C17         -0.5780     2.3090    -0.2590 ca         1 6QE      -0.009000
     24 C18         -0.4630     0.9650     0.1570 ca         1 6QE      -0.098500
     25 N22          3.8240     0.1060     0.9030 n7         1 6QE      -0.904300
     26 S23          5.3540    -0.5140     1.0590 s6         1 6QE       1.229100
     27 O24          6.2400     0.3840     0.3150 o          1 6QE      -0.542500
     28 O25          5.5520    -0.7580     2.4890 o          1 6QE      -0.542500
     29 C26          5.2410    -2.1680     0.1870 cx         1 6QE      -0.373000
     30 C28          5.4810    -2.2370    -1.3120 cx         1 6QE      -0.076900
     31 C29          6.5210    -2.7780    -0.3560 cx         1 6QE      -0.076900
     32 H1          -0.3950     5.0790     0.9240 hc         1 6QE       0.059367
     33 H2          -0.7510     5.8980    -0.6170 hc         1 6QE       0.059367
     34 H3          -1.6820     6.2850     0.8370 hc         1 6QE       0.059367
     35 H4          -3.9550    -1.2290    -2.1380 ha         1 6QE       0.125000
     36 H5          -4.6220    -3.6020    -2.2500 ha         1 6QE       0.124000
     37 H6          -5.2820    -4.8230    -0.1770 ha         1 6QE       0.140000
     38 H7           0.8340    -0.7420     0.4350 ha         1 6QE       0.118500
     39 H8           3.0740    -0.7830    -0.8730 h1         1 6QE       0.055200
     40 H9           3.9250     0.7480    -1.1210 h1         1 6QE       0.055200
     41 H10          3.1930    -2.6350     0.8040 hc         1 6QE       0.051033
     42 H11          4.1380    -4.0510     0.3320 hc         1 6QE       0.051033
     43 H12          4.4380    -3.2750     1.8910 hc         1 6QE       0.051033
     44 H13          2.6940     2.8130    -1.1590 ha         1 6QE       0.118500
     45 H14          0.5400     3.9860    -1.0780 ha         1 6QE       0.123500
     46 H15         -4.2410     1.1300    -1.7290 h1         1 6QE       0.064200
     47 H16         -2.5680     0.5920    -1.4860 h1         1 6QE       0.064200
     48 H17         -1.3190     0.4380     0.5690 ha         1 6QE       0.123500
     49 H18          3.9820     1.0460     1.2580 hn         1 6QE       0.497000
     50 H19          4.9070    -2.9560    -1.8920 hc         1 6QE       0.086950
     51 H20          5.7180    -1.3190    -1.8450 hc         1 6QE       0.086950
     52 H21          7.4480    -2.2170    -0.2520 hc         1 6QE       0.086950
     53 H22          6.6420    -3.8580    -0.3020 hc         1 6QE       0.086950
@<TRIPOS>BOND
     1     1     2 1   
     2     1    32 1   
     3     1    33 1   
     4     1    34 1   
     5     2    10 1   
     6     2    17 2   
     7     3    17 1   
     8     3    18 1   
     9     4     5 ar  
    10     4     9 ar  
    11     4    20 1   
    12     5     6 ar  
    13     5    35 1   
    14     6     7 ar  
    15     6    36 1   
    16     7     8 ar  
    17     7    37 1   
    18     8     9 ar  
    19     8    21 1   
    20     9    22 1   
    21    10    18 2   
    22    10    23 1   
    23    11    12 ar  
    24    11    24 ar  
    25    11    38 1   
    26    12    13 1   
    27    12    15 ar  
    28    13    25 1   
    29    13    39 1   
    30    13    40 1   
    31    14    29 1   
    32    14    41 1   
    33    14    42 1   
    34    14    43 1   
    35    15    16 ar  
    36    15    44 1   
    37    16    23 ar  
    38    16    45 1   
    39    18    19 1   
    40    19    20 1   
    41    19    46 1   
    42    19    47 1   
    43    23    24 ar  
    44    24    48 1   
    45    25    26 1   
    46    25    49 1   
    47    26    27 2   
    48    26    28 2   
    49    26    29 1   
    50    29    30 1   
    51    29    31 1   
    52    30    31 1   
    53    30    50 1   
    54    30    51 1   
    55    31    52 1   
    56    31    53 1   
@<TRIPOS>SUBSTRUCTURE
     1 6QE         1 TEMP              0 ****  ****    0 ROOT
