@<TRIPOS>MOLECULE
6QF
   23    25     1     0     0
SMALL
abcg2


@<TRIPOS>ATOM
      1 C4           1.0260     0.3440     0.0730 ca         1 6QF       0.175000
      2 C5           2.3490     0.8960     0.1080 ca         1 6QF       0.171100
      3 C6           3.4230     0.0540     0.0910 ca         1 6QF      -0.171000
      4 C10         -1.4130    -0.7410     0.0090 ca         1 6QF       0.252000
      5 C13         -3.8000    -0.3970    -0.0050 ca         1 6QF      -0.097000
      6 C15         -2.3490     1.5390     0.0750 ca         1 6QF      -0.083000
      7 C1           3.2240    -1.3510     0.0400 ca         1 6QF      -0.052000
      8 C2           1.9840    -1.9150     0.0070 ca         1 6QF      -0.130000
      9 C3           0.8420    -1.0730     0.0230 ca         1 6QF       0.280000
     10 N7          -0.3850    -1.5840    -0.0080 nb         1 6QF      -0.628000
     11 N8           0.0080     1.1870     0.0900 nb         1 6QF      -0.652000
     12 C9          -1.2190     0.6780     0.0590 ca         1 6QF       0.240000
     13 C11         -2.7410    -1.2520    -0.0220 ca         1 6QF      -0.083000
     14 C14         -3.6020     1.0110     0.0440 ca         1 6QF      -0.098000
     15 O19          2.4880     2.2230     0.1560 oh         1 6QF      -0.521100
     16 H6           4.4280     0.4540     0.1180 ha         1 6QF       0.135000
     17 H13         -4.8090    -0.7860    -0.0290 ha         1 6QF       0.121000
     18 H15         -2.1850     2.6080     0.1120 ha         1 6QF       0.132000
     19 H1           4.0990    -1.9870     0.0290 ha         1 6QF       0.119000
     20 H2           1.8470    -2.9870    -0.0300 ha         1 6QF       0.137000
     21 H11         -2.8790    -2.3240    -0.0590 ha         1 6QF       0.136000
     22 H14         -4.4640     1.6640     0.0560 ha         1 6QF       0.121000
     23 H3           1.6020     2.6200     0.1600 ho         1 6QF       0.496000
@<TRIPOS>BOND
     1     1     2 ar  
     2     1     9 ar  
     3     1    11 ar  
     4     2     3 ar  
     5     2    15 1   
     6     3     7 ar  
     7     3    16 1   
     8     4    10 ar  
     9     4    12 ar  
    10     4    13 ar  
    11     5    13 ar  
    12     5    14 ar  
    13     5    17 1   
    14     6    12 ar  
    15     6    14 ar  
    16     6    18 1   
    17     7     8 ar  
    18     7    19 1   
    19     8     9 ar  
    20     8    20 1   
    21     9    10 ar  
    22    11    12 ar  
    23    13    21 1   
    24    14    22 1   
    25    15    23 1   
@<TRIPOS>SUBSTRUCTURE
     1 6QF         1 TEMP              0 ****  ****    0 ROOT
