@<TRIPOS>MOLECULE
6QF
   23    25     1     0     0
SMALL
No Charge or Current Charge


@<TRIPOS>ATOM
      1 C4           1.0520     0.3740     0.0750 ca         1 6QF       0.175000
      2 C5           2.3730     0.8820     0.1070 ca         1 6QF       0.171100
      3 C6           3.4810     0.0230     0.0910 ca         1 6QF      -0.171000
      4 C10         -1.4370    -0.7320     0.0090 ca         1 6QF       0.252000
      5 C13         -3.8620    -0.3950    -0.0070 ca         1 6QF      -0.097000
      6 C15         -2.3790     1.5280     0.0760 ca         1 6QF      -0.083000
      7 C1           3.2890    -1.3660     0.0410 ca         1 6QF      -0.052000
      8 C2           1.9870    -1.8900     0.0090 ca         1 6QF      -0.130000
      9 C3           0.8620    -1.0430     0.0250 ca         1 6QF       0.280000
     10 N7          -0.3810    -1.5870    -0.0080 nb         1 6QF      -0.628000
     11 N8          -0.0070     1.2360     0.0920 nb         1 6QF      -0.652000
     12 C9          -1.2500     0.6880     0.0600 ca         1 6QF       0.240000
     13 C11         -2.7460    -1.2490    -0.0230 ca         1 6QF      -0.083000
     14 C14         -3.6780     0.9940     0.0430 ca         1 6QF      -0.098000
     15 O19          2.5700     2.2330     0.1560 oh         1 6QF      -0.521100
     16 H6           4.4870     0.4330     0.1160 ha         1 6QF       0.135000
     17 H13         -4.8670    -0.8110    -0.0320 ha         1 6QF       0.121000
     18 H15         -2.2430     2.6060     0.1140 ha         1 6QF       0.132000
     19 H1           4.1470    -2.0360     0.0280 ha         1 6QF       0.119000
     20 H2           1.8430    -2.9660    -0.0290 ha         1 6QF       0.137000
     21 H11         -2.8950    -2.3250    -0.0610 ha         1 6QF       0.136000
     22 H14         -4.5400     1.6580     0.0550 ha         1 6QF       0.121000
     23 H3           1.6670     2.6270     0.1590 ho         1 6QF       0.496000
@<TRIPOS>BOND
     1     1     2 ar  
     2     1     9 ar  
     3     1    11 ar  
     4     2     3 ar  
     5     2    15 1   
     6     3     7 ar  
     7     3    16 1   
     8     4    10 ar  
     9     4    12 ar  
    10     4    13 ar  
    11     5    13 ar  
    12     5    14 ar  
    13     5    17 1   
    14     6    12 ar  
    15     6    14 ar  
    16     6    18 1   
    17     7     8 ar  
    18     7    19 1   
    19     8     9 ar  
    20     8    20 1   
    21     9    10 ar  
    22    11    12 ar  
    23    13    21 1   
    24    14    22 1   
    25    15    23 1   
@<TRIPOS>SUBSTRUCTURE
     1 6QF         1 TEMP              0 ****  ****    0 ROOT
