@<TRIPOS>MOLECULE
6QG
   50    53     1     0     0
SMALL
No Charge or Current Charge


@<TRIPOS>ATOM
      1 C1          -0.2300     4.2340    -1.2540 ca         1 6QG      -0.072000
      2 C2           1.1810    -0.8330    -1.1840 ca         1 6QG      -0.096500
      3 C3           1.3740    -2.3310     0.7050 ca         1 6QG      -0.096500
      4 C7           0.9240     3.4910    -0.9490 ca         1 6QG      -0.195000
      5 C8          -0.3110     2.3040     0.7800 ca         1 6QG      -0.136000
      6 C9           1.9680    -1.3670    -0.1380 ca         1 6QG       0.019000
      7 C10          3.3780    -0.9630     0.0470 cc         1 6QG      -0.153000
      8 C11         -0.7190    -2.2290    -0.5510 ca         1 6QG      -0.141300
      9 C12         -1.4710     3.0330     0.4710 ca         1 6QG      -0.043300
     10 C13          0.8780     2.5170     0.0710 ca         1 6QG       0.135100
     11 C14          3.8240     0.3260    -0.0950 cd         1 6QG       0.180300
     12 C15          4.4880    -1.6400     0.6130 cc         1 6QG       0.288300
     13 C16         -2.7620     2.7620     1.2310 c3         1 6QG      -0.028100
     14 C19         -3.6070     1.6300     0.6060 c3         1 6QG      -0.040400
     15 C20         -2.9070     0.2420     0.6000 c3         1 6QG      -0.343400
     16 C21          4.5030    -3.1000     0.9730 c3         1 6QG      -0.135400
     17 N23         -3.0950    -2.4550     0.1890 n7         1 6QG      -0.890300
     18 C4          -1.4250     4.0010    -0.5500 ca         1 6QG      -0.136000
     19 C5          -0.1440    -1.2570    -1.3890 ca         1 6QG      -0.096500
     20 C6           0.0490    -2.7570     0.5020 ca         1 6QG      -0.096500
     21 C17         -2.1050    -2.7920    -0.8480 c3         1 6QG       0.258100
     22 C18          3.1160     1.6130    -0.4440 c3         1 6QG       0.130300
     23 N22          5.5620    -0.8820     0.7510 nd         1 6QG      -0.355300
     24 O26          5.1370     0.4060     0.2860 os         1 6QG      -0.059700
     25 O27          1.9520     1.7220     0.3920 os         1 6QG      -0.342100
     26 S28         -4.0150    -1.0700     0.0690 s6         1 6QG       1.193100
     27 H1          -0.2010     4.9850    -2.0410 ha         1 6QG       0.115000
     28 H2           1.6050    -0.1240    -1.8860 ha         1 6QG       0.118000
     29 H3           1.9270    -2.7500     1.5380 ha         1 6QG       0.118000
     30 H4           1.8370     3.6810    -1.5060 ha         1 6QG       0.116000
     31 H5          -0.3350     1.5470     1.5590 ha         1 6QG       0.127000
     32 H6          -2.5390     2.5060     2.2740 hc         1 6QG       0.052700
     33 H7          -3.3700     3.6740     1.2700 hc         1 6QG       0.052700
     34 H8          -4.5460     1.5600     1.1710 hc         1 6QG       0.061200
     35 H9          -3.8780     1.9090    -0.4200 hc         1 6QG       0.061200
     36 H10         -2.0570     0.2400    -0.0900 h1         1 6QG       0.095700
     37 H11         -2.5700    -0.0220     1.6080 h1         1 6QG       0.095700
     38 H12          3.8520    -3.6800     0.3080 hc         1 6QG       0.059033
     39 H13          5.5140    -3.5140     0.8820 hc         1 6QG       0.059033
     40 H14          4.1730    -3.2510     2.0070 hc         1 6QG       0.059033
     41 H15         -2.5950    -2.2990     1.0600 hn         1 6QG       0.488000
     42 H16         -2.3160     4.5730    -0.8010 ha         1 6QG       0.118000
     43 H17         -0.7100    -0.8510    -2.2250 ha         1 6QG       0.118500
     44 H18         -0.3690    -3.5210     1.1540 ha         1 6QG       0.118500
     45 H19         -2.4360    -2.4880    -1.8510 h1         1 6QG       0.078700
     46 H20         -1.9960    -3.8850    -0.8920 h1         1 6QG       0.078700
     47 H21          3.7880     2.4660    -0.2820 h1         1 6QG       0.064200
     48 H22          2.8510     1.5910    -1.5070 h1         1 6QG       0.064200
     49 O24         -5.1000    -1.2310     1.0390 o          1 6QG      -0.532500
     50 O25         -4.3250    -0.8940    -1.3510 o          1 6QG      -0.532500
@<TRIPOS>BOND
     1     1     4 ar  
     2     1    18 ar  
     3     1    27 1   
     4     2     6 ar  
     5     2    19 ar  
     6     2    28 1   
     7     3     6 ar  
     8     3    20 ar  
     9     3    29 1   
    10     4    10 ar  
    11     4    30 1   
    12     5     9 ar  
    13     5    10 ar  
    14     5    31 1   
    15     6     7 1   
    16     7    11 2   
    17     7    12 1   
    18     8    19 ar  
    19     8    20 ar  
    20     8    21 1   
    21     9    13 1   
    22     9    18 ar  
    23    10    25 1   
    24    11    22 1   
    25    11    24 1   
    26    12    16 1   
    27    12    23 2   
    28    13    14 1   
    29    13    32 1   
    30    13    33 1   
    31    14    15 1   
    32    14    34 1   
    33    14    35 1   
    34    15    26 1   
    35    15    36 1   
    36    15    37 1   
    37    16    38 1   
    38    16    39 1   
    39    16    40 1   
    40    17    21 1   
    41    17    26 1   
    42    17    41 1   
    43    18    42 1   
    44    19    43 1   
    45    20    44 1   
    46    21    45 1   
    47    21    46 1   
    48    22    25 1   
    49    22    47 1   
    50    22    48 1   
    51    23    24 1   
    52    26    49 2   
    53    26    50 2   
@<TRIPOS>SUBSTRUCTURE
     1 6QG         1 TEMP              0 ****  ****    0 ROOT
