@<TRIPOS>MOLECULE
6QG
   50    53     1     0     0
SMALL
abcg2


@<TRIPOS>ATOM
      1 C1          -0.2650     4.0630    -1.3060 ca         1 6QG      -0.072000
      2 C2           1.2040    -0.9360    -1.2380 ca         1 6QG      -0.096500
      3 C3           1.2430    -2.1380     0.8320 ca         1 6QG      -0.096500
      4 C7           0.9220     3.4160    -0.9770 ca         1 6QG      -0.195000
      5 C8          -0.2280     2.3350     0.8450 ca         1 6QG      -0.136000
      6 C9           1.8880    -1.3030    -0.0810 ca         1 6QG       0.019000
      7 C10          3.2590    -0.8400     0.1570 cc         1 6QG      -0.153000
      8 C11         -0.7150    -2.2460    -0.5800 ca         1 6QG      -0.141300
      9 C12         -1.4090     2.9830     0.5160 ca         1 6QG      -0.043300
     10 C13          0.9320     2.5390     0.1000 ca         1 6QG       0.135100
     11 C14          3.7660     0.4110     0.0120 cd         1 6QG       0.180300
     12 C15          4.3980    -1.6050     0.5500 cc         1 6QG       0.288300
     13 C16         -2.6650     2.7120     1.2950 c3         1 6QG      -0.028100
     14 C19         -3.5390     1.6250     0.6600 c3         1 6QG      -0.040400
     15 C20         -2.8300     0.2770     0.6140 c3         1 6QG      -0.343400
     16 C21          4.4740    -3.0610     0.8400 c3         1 6QG      -0.135400
     17 N23         -3.1310    -2.4380     0.0740 n7         1 6QG      -0.890300
     18 C4          -1.4220     3.8520    -0.5760 ca         1 6QG      -0.136000
     19 C5          -0.0820    -1.3960    -1.4790 ca         1 6QG      -0.096500
     20 C6          -0.0370    -2.6040     0.5830 ca         1 6QG      -0.096500
     21 C17         -2.0860    -2.8020    -0.8720 c3         1 6QG       0.258100
     22 C18          3.1230     1.7040    -0.3500 c3         1 6QG       0.130300
     23 N22          5.4600    -0.8560     0.6150 nd         1 6QG      -0.355300
     24 O26          5.0670     0.4060     0.2880 os         1 6QG      -0.059700
     25 O27          2.0170     1.8480     0.5150 os         1 6QG      -0.342100
     26 S28         -3.9220    -1.0010     0.0020 s6         1 6QG       1.193100
     27 H1          -0.2730     4.7490    -2.1440 ha         1 6QG       0.115000
     28 H2           1.6880    -0.3080    -1.9760 ha         1 6QG       0.118000
     29 H3           1.7430    -2.4290     1.7470 ha         1 6QG       0.118000
     30 H4           1.8140     3.6190    -1.5560 ha         1 6QG       0.116000
     31 H5          -0.1980     1.6490     1.6840 ha         1 6QG       0.127000
     32 H6          -2.4160     2.4190     2.3180 hc         1 6QG       0.052700
     33 H7          -3.2600     3.6240     1.3640 hc         1 6QG       0.052700
     34 H8          -4.4550     1.5390     1.2470 hc         1 6QG       0.061200
     35 H9          -3.8260     1.9290    -0.3480 hc         1 6QG       0.061200
     36 H10         -1.9610     0.2930    -0.0460 h1         1 6QG       0.095700
     37 H11         -2.4970    -0.0380     1.6060 h1         1 6QG       0.095700
     38 H12          3.9580    -3.6350     0.0710 hc         1 6QG       0.059033
     39 H13          5.5100    -3.3910     0.8830 hc         1 6QG       0.059033
     40 H14          4.0070    -3.2980     1.7960 hc         1 6QG       0.059033
     41 H15         -3.0340    -2.8010     1.0150 hn         1 6QG       0.488000
     42 H16         -2.3360     4.3680    -0.8460 ha         1 6QG       0.118000
     43 H17         -0.5860    -1.1030    -2.3930 ha         1 6QG       0.118500
     44 H18         -0.5050    -3.2670     1.3010 ha         1 6QG       0.118500
     45 H19         -2.4100    -2.5110    -1.8700 h1         1 6QG       0.078700
     46 H20         -2.0470    -3.8920    -0.8690 h1         1 6QG       0.078700
     47 H21          3.8290     2.5330    -0.2450 h1         1 6QG       0.064200
     48 H22          2.8080     1.6730    -1.3980 h1         1 6QG       0.064200
     49 O24         -5.0420    -1.1110     0.9280 o          1 6QG      -0.532500
     50 O25         -4.1830    -0.7280    -1.4050 o          1 6QG      -0.532500
@<TRIPOS>BOND
     1     1     4 ar  
     2     1    18 ar  
     3     1    27 1   
     4     2     6 ar  
     5     2    19 ar  
     6     2    28 1   
     7     3     6 ar  
     8     3    20 ar  
     9     3    29 1   
    10     4    10 ar  
    11     4    30 1   
    12     5     9 ar  
    13     5    10 ar  
    14     5    31 1   
    15     6     7 1   
    16     7    11 2   
    17     7    12 1   
    18     8    19 ar  
    19     8    20 ar  
    20     8    21 1   
    21     9    13 1   
    22     9    18 ar  
    23    10    25 1   
    24    11    22 1   
    25    11    24 1   
    26    12    16 1   
    27    12    23 2   
    28    13    14 1   
    29    13    32 1   
    30    13    33 1   
    31    14    15 1   
    32    14    34 1   
    33    14    35 1   
    34    15    26 1   
    35    15    36 1   
    36    15    37 1   
    37    16    38 1   
    38    16    39 1   
    39    16    40 1   
    40    17    21 1   
    41    17    26 1   
    42    17    41 1   
    43    18    42 1   
    44    19    43 1   
    45    20    44 1   
    46    21    45 1   
    47    21    46 1   
    48    22    25 1   
    49    22    47 1   
    50    22    48 1   
    51    23    24 1   
    52    26    49 2   
    53    26    50 2   
@<TRIPOS>SUBSTRUCTURE
     1 6QG         1 TEMP              0 ****  ****    0 ROOT
