@<TRIPOS>MOLECULE
6QH
   41    43     1     0     0
SMALL
abcg2


@<TRIPOS>ATOM
      1 C4          -4.9440    -1.1520    -0.5650 ca         1 6QH       0.175100
      2 C6          -3.8560     0.8490     0.2640 ca         1 6QH      -0.034000
      3 C20          5.4650    -1.2010     0.1060 c3         1 6QH       0.092600
      4 C8          -0.5960     3.3130    -0.1110 cc         1 6QH       0.441900
      5 C18          3.0110    -0.7350    -0.0140 c3         1 6QH       0.110000
      6 O17          0.2480    -1.0900    -0.2270 o          1 6QH      -0.615100
      7 C19          4.3960    -0.1190     0.0970 c3         1 6QH      -0.116400
      8 C2          -2.6370    -0.6900    -1.1140 ca         1 6QH      -0.006000
      9 C3          -3.7580    -1.4990    -1.2080 ca         1 6QH      -0.207000
     10 C23          8.5090     0.4180    -0.2210 cc         1 6QH       0.517900
     11 C25          7.6280    -0.7220     1.2800 cd         1 6QH       0.410400
     12 C1          -2.6640     0.4880    -0.3730 ca         1 6QH      -0.181500
     13 C5          -4.9670     0.0410     0.1690 ca         1 6QH       0.063000
     14 C11         -1.5100     1.3680    -0.2740 cc         1 6QH       0.262500
     15 C10         -0.1510     1.2490    -0.2120 cd         1 6QH       0.163500
     16 C15          0.7040     0.0450    -0.1720 c          1 6QH       0.544600
     17 C14         -6.0740    -3.0990    -1.2940 c3         1 6QH       0.145900
     18 N24          8.7320    -0.0570     1.0220 nc         1 6QH      -0.697000
     19 N22          7.3470     0.0840    -0.7300 nd         1 6QH      -0.541800
     20 N9           0.4010     2.5110    -0.1130 nd         1 6QH      -0.686000
     21 N21          6.7940    -0.6480     0.2400 na         1 6QH      -0.064700
     22 N16          2.0110     0.3080    -0.0610 ns         1 6QH      -0.492900
     23 O7          -1.7770     2.6950    -0.2060 os         1 6QH      -0.259000
     24 O13         -6.0680    -1.8650    -0.5950 os         1 6QH      -0.320100
     25 CL1         -6.4280     0.4940     0.9730 cl         1 6QH      -0.179000
     26 H1          -3.9180     1.7550     0.8520 ha         1 6QH       0.137000
     27 H2           5.3180    -1.8840     0.9430 h1         1 6QH       0.065700
     28 H3           5.4290    -1.7920    -0.8100 h1         1 6QH       0.065700
     29 H4          -0.5950     4.3900    -0.0450 h5         1 6QH       0.089100
     30 H5           2.9470    -1.3530    -0.9140 h1         1 6QH       0.050200
     31 H6           2.8280    -1.3960     0.8380 h1         1 6QH       0.050200
     32 H7           4.4670     0.4710     1.0140 hc         1 6QH       0.066700
     33 H8           4.5680     0.5570    -0.7430 hc         1 6QH       0.066700
     34 H9          -1.7410    -0.9840    -1.6370 ha         1 6QH       0.142000
     35 H10         -3.6960    -2.4020    -1.8000 ha         1 6QH       0.127000
     36 H12          7.3940    -1.2630     2.1840 h5         1 6QH       0.063100
     37 H13         -7.0740    -3.5090    -1.1800 h1         1 6QH       0.047367
     38 H14         -5.8660    -2.9630    -2.3570 h1         1 6QH       0.047367
     39 H15         -5.3510    -3.8030    -0.8750 h1         1 6QH       0.047367
     40 H16          2.3050     1.2720    -0.0020 hn         1 6QH       0.343500
     41 H11          9.2200     1.0210    -0.7650 h5         1 6QH       0.064100
@<TRIPOS>BOND
     1     1     9 ar  
     2     1    13 ar  
     3     1    24 1   
     4     2    12 ar  
     5     2    13 ar  
     6     2    26 1   
     7     3     7 1   
     8     3    21 1   
     9     3    27 1   
    10     3    28 1   
    11     4    20 2   
    12     4    23 1   
    13     4    29 1   
    14     5     7 1   
    15     5    22 1   
    16     5    30 1   
    17     5    31 1   
    18     6    16 2   
    19     7    32 1   
    20     7    33 1   
    21     8     9 ar  
    22     8    12 ar  
    23     8    34 1   
    24     9    35 1   
    25    10    18 1   
    26    10    19 2   
    27    10    41 1   
    28    11    18 2   
    29    11    21 1   
    30    11    36 1   
    31    12    14 1   
    32    13    25 1   
    33    14    15 2   
    34    14    23 1   
    35    15    16 1   
    36    15    20 1   
    37    16    22 1   
    38    17    24 1   
    39    17    37 1   
    40    17    38 1   
    41    17    39 1   
    42    19    21 1   
    43    22    40 1   
@<TRIPOS>SUBSTRUCTURE
     1 6QH         1 TEMP              0 ****  ****    0 ROOT
