@<TRIPOS>MOLECULE
6QH
   41    43     1     0     0
SMALL
No Charge or Current Charge


@<TRIPOS>ATOM
      1 C4          -4.6670    -1.2960    -0.4310 ca         1 6QH       0.175100
      2 C6          -3.6340     0.6550     0.6140 ca         1 6QH      -0.034000
      3 C20          5.3150    -1.2960     0.2270 c3         1 6QH       0.092600
      4 C8          -0.7190     3.6420    -0.3440 cc         1 6QH       0.441900
      5 C18          2.8280    -0.6960     0.0400 c3         1 6QH       0.110000
      6 O17         -0.0210    -0.8830    -0.0800 o          1 6QH      -0.615100
      7 C19          4.2720    -0.1660     0.1010 c3         1 6QH      -0.116400
      8 C2          -2.6490    -0.3060    -1.3910 ca         1 6QH      -0.006000
      9 C3          -3.6620    -1.2810    -1.4240 ca         1 6QH      -0.207000
     10 C23          8.5820    -0.1650    -0.3240 cc         1 6QH       0.517900
     11 C25          7.4240    -0.4470     1.4140 cd         1 6QH       0.410400
     12 C1          -2.6220     0.6600    -0.3660 ca         1 6QH      -0.181500
     13 C5          -4.6470    -0.3190     0.5860 ca         1 6QH       0.063000
     14 C11         -1.5910     1.6980    -0.3380 cc         1 6QH       0.262500
     15 C10         -0.2260     1.5430    -0.2520 cd         1 6QH       0.163500
     16 C15          0.4930     0.2270    -0.1340 c          1 6QH       0.544600
     17 C14         -5.7790    -3.2700    -1.4250 c3         1 6QH       0.145900
     18 N24          8.6250    -0.0440     1.0350 nc         1 6QH      -0.697000
     19 N22          7.4540    -0.6120    -0.8480 nd         1 6QH      -0.541800
     20 N9           0.3300     2.8250    -0.2710 nd         1 6QH      -0.686000
     21 N21          6.7000    -0.7950     0.2820 na         1 6QH      -0.064700
     22 N16          1.8600     0.3930    -0.0790 ns         1 6QH      -0.492900
     23 O7          -1.9280     3.0090    -0.3730 os         1 6QH      -0.259000
     24 O13         -5.6810    -2.2390    -0.4270 os         1 6QH      -0.320100
     25 Cl1         -5.8890    -0.2940     1.8400 cl         1 6QH      -0.179000
     26 H1          -3.6350     1.4050     1.4020 ha         1 6QH       0.137000
     27 H2           5.1170    -1.8760     1.1380 h1         1 6QH       0.065700
     28 H3           5.2220    -1.9770    -0.6280 h1         1 6QH       0.065700
     29 H4          -0.7070     4.7260    -0.3770 h5         1 6QH       0.089100
     30 H5           2.7160    -1.3650    -0.8240 h1         1 6QH       0.050200
     31 H6           2.6060    -1.2680     0.9510 h1         1 6QH       0.050200
     32 H7           4.3720     0.5160     0.9550 hc         1 6QH       0.066700
     33 H8           4.4820     0.4160    -0.8060 hc         1 6QH       0.066700
     34 H9          -1.8850    -0.3010    -2.1680 ha         1 6QH       0.142000
     35 H10         -3.6490    -2.0120    -2.2260 ha         1 6QH       0.127000
     36 H12          7.0260    -0.5110     2.4200 h5         1 6QH       0.063100
     37 H13         -6.6510    -3.9050    -1.2300 h1         1 6QH       0.047367
     38 H14         -5.8920    -2.8360    -2.4260 h1         1 6QH       0.047367
     39 H15         -4.8860    -3.9080    -1.4160 h1         1 6QH       0.047367
     40 H16          2.1900     1.3520    -0.1260 hn         1 6QH       0.343500
     41 H11          9.4560     0.1040    -0.9070 h5         1 6QH       0.064100
@<TRIPOS>BOND
     1     1     9 ar  
     2     1    13 ar  
     3     1    24 1   
     4     2    12 ar  
     5     2    13 ar  
     6     2    26 1   
     7     3     7 1   
     8     3    21 1   
     9     3    27 1   
    10     3    28 1   
    11     4    20 2   
    12     4    23 1   
    13     4    29 1   
    14     5     7 1   
    15     5    22 1   
    16     5    30 1   
    17     5    31 1   
    18     6    16 2   
    19     7    32 1   
    20     7    33 1   
    21     8     9 ar  
    22     8    12 ar  
    23     8    34 1   
    24     9    35 1   
    25    10    18 1   
    26    10    19 2   
    27    10    41 1   
    28    11    18 2   
    29    11    21 1   
    30    11    36 1   
    31    12    14 1   
    32    13    25 1   
    33    14    15 2   
    34    14    23 1   
    35    15    16 1   
    36    15    20 1   
    37    16    22 1   
    38    17    24 1   
    39    17    37 1   
    40    17    38 1   
    41    17    39 1   
    42    19    21 1   
    43    22    40 1   
@<TRIPOS>SUBSTRUCTURE
     1 6QH         1 TEMP              0 ****  ****    0 ROOT
