@<TRIPOS>MOLECULE
6QI
   63    67     1     0     0
SMALL
No Charge or Current Charge


@<TRIPOS>ATOM
      1 CAA         -9.6100   -12.4060    13.9080 ca         1 6QI      -0.163500
      2 CAB        -10.6280   -12.5450    12.9510 ca         1 6QI      -0.070500
      3 CAC        -11.8320   -11.8140    13.0560 ca         1 6QI      -0.112300
      4 CAD        -11.9870   -10.9450    14.1640 ca         1 6QI      -0.070500
      5 CAE        -10.9680   -10.8070    15.1220 ca         1 6QI      -0.163500
      6 CAF         -9.7700   -11.5380    14.9960 ca         1 6QI       0.141100
      7 CAH         -8.8060   -10.5840    17.0580 c3         1 6QI       0.148900
      8 CAI        -12.9240   -12.0350    11.9810 c5         1 6QI      -0.069700
      9 CAJ        -13.3750   -13.5440    11.8060 c          1 6QI       0.612100
     10 CAL        -14.9350   -15.3060    12.6900 c3         1 6QI       0.091000
     11 CAM        -14.3000   -16.6210    13.2250 c3         1 6QI      -0.106700
     12 CAN        -13.3850   -16.4390    14.4710 c3         1 6QI       0.162600
     13 CAP        -14.6430   -14.4720    15.4050 c3         1 6QI       0.145600
     14 CAQ        -13.9010   -13.6450    14.3160 c3         1 6QI       0.069000
     15 CAR        -13.5380   -17.3630    12.0910 c3         1 6QI      -0.031100
     16 CAS        -13.0360   -18.7440    12.4980 ca         1 6QI      -0.004300
     17 CAT        -13.9050   -19.8400    12.6200 ca         1 6QI      -0.229900
     18 CAU        -13.4710   -21.0730    12.9880 ca         1 6QI      -0.028200
     19 CAV        -12.1260   -21.3380    13.2700 ca         1 6QI      -0.136000
     20 CAW        -11.2150   -20.2660    13.1580 ca         1 6QI      -0.067000
     21 CAX        -11.6680   -18.9790    12.7740 ca         1 6QI      -0.148000
     22 CBA        -15.3270   -19.9730    12.4190 cc         1 6QI       0.354800
     23 CBC        -12.3170   -11.4690    10.6510 c5         1 6QI      -0.066400
     24 CBD        -13.5590   -11.2120     9.7370 c5         1 6QI      -0.079900
     25 CBE        -14.7800   -11.1540    10.7080 c5         1 6QI      -0.079900
     26 CBF        -14.1320   -11.0410    12.1120 c5         1 6QI      -0.066400
     27 NAK        -14.1220   -14.0770    12.8980 n          1 6QI      -0.406800
     28 NAY        -14.5720   -21.9030    13.0090 na         1 6QI      -0.078400
     29 NAZ        -15.7480   -21.2280    12.6530 nd         1 6QI      -0.515100
     30 OAG         -8.7370   -11.4440    15.9060 os         1 6QI      -0.348100
     31 OAO        -14.0760   -15.8000    15.5760 os         1 6QI      -0.459000
     32 OBB        -13.1790   -14.2150    10.7970 o          1 6QI      -0.616100
     33 H1          -8.6910   -12.9770    13.8060 ha         1 6QI       0.122500
     34 H2         -10.4780   -13.2320    12.1200 ha         1 6QI       0.116500
     35 H3         -12.9000   -10.3740    14.3100 ha         1 6QI       0.116500
     36 H4         -11.1290   -10.1300    15.9570 ha         1 6QI       0.122500
     37 H5          -7.8820   -10.6600    17.6460 h1         1 6QI       0.042033
     38 H6          -8.9310    -9.5360    16.7560 h1         1 6QI       0.042033
     39 H7          -9.6450   -10.8670    17.7070 h1         1 6QI       0.042033
     40 H8         -15.9070   -15.1610    13.1770 h1         1 6QI       0.061200
     41 H9         -15.1770   -15.4180    11.6250 h1         1 6QI       0.061200
     42 H10        -15.1310   -17.2690    13.5260 hc         1 6QI       0.059700
     43 H11        -13.0400   -17.4280    14.8000 h1         1 6QI       0.053200
     44 H12        -12.4840   -15.8770    14.1920 h1         1 6QI       0.053200
     45 H13        -14.5700   -13.9280    16.3550 h1         1 6QI       0.047700
     46 H14        -15.7130   -14.5300    15.1680 h1         1 6QI       0.047700
     47 H15        -12.8270   -13.6750    14.5400 h1         1 6QI       0.056700
     48 H16        -14.2300   -12.6090    14.4320 h1         1 6QI       0.056700
     49 H17        -12.6960   -16.7430    11.7590 hc         1 6QI       0.061700
     50 H18        -14.1950   -17.4660    11.2190 hc         1 6QI       0.061700
     51 H19        -11.7940   -22.3310    13.5640 ha         1 6QI       0.120000
     52 H20        -10.1600   -20.4280    13.3680 ha         1 6QI       0.114000
     53 H21        -10.9520   -18.1640    12.6950 ha         1 6QI       0.116000
     54 H22        -16.0710   -19.2460    12.1200 h4         1 6QI       0.046800
     55 H23        -11.5920   -12.1460    10.1840 hc         1 6QI       0.052450
     56 H24        -11.7850   -10.5270    10.8310 hc         1 6QI       0.052450
     57 H25        -13.4440   -10.2790     9.1740 hc         1 6QI       0.046700
     58 H26        -13.6870   -12.0110     8.9970 hc         1 6QI       0.046700
     59 H27        -15.4390   -10.3050    10.4910 hc         1 6QI       0.046700
     60 H28        -15.3950   -12.0580    10.6240 hc         1 6QI       0.046700
     61 H29        -13.8050   -10.0090    12.2850 hc         1 6QI       0.052450
     62 H30        -14.8460   -11.2910    12.9020 hc         1 6QI       0.052450
     63 H31        -14.5730   -22.8940    13.2480 hn         1 6QI       0.375000
@<TRIPOS>BOND
     1     1     2 ar  
     2     1     6 ar  
     3     1    33 1   
     4     2     3 ar  
     5     2    34 1   
     6     3     4 ar  
     7     3     8 1   
     8     4     5 ar  
     9     4    35 1   
    10     5     6 ar  
    11     5    36 1   
    12     6    30 1   
    13     7    30 1   
    14     7    37 1   
    15     7    38 1   
    16     7    39 1   
    17     8     9 1   
    18     8    23 1   
    19     8    26 1   
    20     9    27 1   
    21     9    32 2   
    22    10    11 1   
    23    10    27 1   
    24    10    40 1   
    25    10    41 1   
    26    11    12 1   
    27    11    15 1   
    28    11    42 1   
    29    12    31 1   
    30    12    43 1   
    31    12    44 1   
    32    13    14 1   
    33    13    31 1   
    34    13    45 1   
    35    13    46 1   
    36    14    27 1   
    37    14    47 1   
    38    14    48 1   
    39    15    16 1   
    40    15    49 1   
    41    15    50 1   
    42    16    17 ar  
    43    16    21 ar  
    44    17    18 ar  
    45    17    22 1   
    46    18    19 ar  
    47    18    28 1   
    48    19    20 ar  
    49    19    51 1   
    50    20    21 ar  
    51    20    52 1   
    52    21    53 1   
    53    22    29 2   
    54    22    54 1   
    55    23    24 1   
    56    23    55 1   
    57    23    56 1   
    58    24    25 1   
    59    24    57 1   
    60    24    58 1   
    61    25    26 1   
    62    25    59 1   
    63    25    60 1   
    64    26    61 1   
    65    26    62 1   
    66    28    29 1   
    67    28    63 1   
@<TRIPOS>SUBSTRUCTURE
     1 6QI         1 TEMP              0 ****  ****    0 ROOT
