@<TRIPOS>MOLECULE
6QI
   63    67     1     0     0
SMALL
abcg2


@<TRIPOS>ATOM
      1 CAA         -9.9690   -13.0750    14.0440 ca         1 6QI      -0.163500
      2 CAB        -10.9390   -12.9830    13.0630 ca         1 6QI      -0.070500
      3 CAC        -11.9420   -12.0050    13.1100 ca         1 6QI      -0.112300
      4 CAD        -11.9160   -11.1130    14.1770 ca         1 6QI      -0.070500
      5 CAE        -10.9450   -11.1870    15.1740 ca         1 6QI      -0.163500
      6 CAF         -9.9660   -12.1760    15.1140 ca         1 6QI       0.141100
      7 CAH         -8.9380   -11.4420    17.1450 c3         1 6QI       0.148900
      8 CAI        -12.9760   -11.9490    11.9950 c5         1 6QI      -0.069700
      9 CAJ        -13.5600   -13.3700    11.7570 c          1 6QI       0.612100
     10 CAL        -14.9490   -15.2440    12.4240 c3         1 6QI       0.091000
     11 CAM        -14.1570   -16.4280    13.0550 c3         1 6QI      -0.106700
     12 CAN        -13.0090   -15.9630    13.9470 c3         1 6QI       0.162600
     13 CAP        -14.5960   -14.5140    15.0920 c3         1 6QI       0.145600
     14 CAQ        -14.6200   -13.4110    14.0390 c3         1 6QI       0.069000
     15 CAR        -13.6050   -17.3460    11.9420 c3         1 6QI      -0.031100
     16 CAS        -12.9830   -18.6190    12.4420 ca         1 6QI      -0.004300
     17 CAT        -13.7750   -19.6570    12.9750 ca         1 6QI      -0.229900
     18 CAU        -13.1720   -20.8410    13.4620 ca         1 6QI      -0.028200
     19 CAV        -11.7860   -21.0390    13.4400 ca         1 6QI      -0.136000
     20 CAW        -11.0280   -20.0150    12.9100 ca         1 6QI      -0.067000
     21 CAX        -11.6150   -18.8290    12.4190 ca         1 6QI      -0.148000
     22 CBA        -15.1710   -19.8670    13.1720 cc         1 6QI       0.354800
     23 CBC        -12.3220   -11.4500    10.6810 c5         1 6QI      -0.066400
     24 CBD        -13.4760   -10.9470     9.7870 c5         1 6QI      -0.079900
     25 CBE        -14.6960   -10.8070    10.7300 c5         1 6QI      -0.079900
     26 CBF        -14.1150   -10.9160    12.1450 c5         1 6QI      -0.066400
     27 NAK        -14.3660   -13.9320    12.6960 n          1 6QI      -0.406800
     28 NAY        -14.1930   -21.6320    13.8940 na         1 6QI      -0.078400
     29 NAZ        -15.4030   -21.0470    13.7180 nd         1 6QI      -0.515100
     30 OAG         -8.9810   -12.3440    16.0400 os         1 6QI      -0.348100
     31 OAO        -13.3900   -15.2610    15.1400 os         1 6QI      -0.459000
     32 OBB        -13.3020   -13.9750    10.7140 o          1 6QI      -0.616100
     33 H1          -9.2050   -13.8410    13.9990 ha         1 6QI       0.122500
     34 H2         -10.9220   -13.6910    12.2440 ha         1 6QI       0.116500
     35 H3         -12.6730   -10.3450    14.2610 ha         1 6QI       0.116500
     36 H4         -10.9700   -10.4760    15.9870 ha         1 6QI       0.122500
     37 H5          -8.0850   -11.7470    17.7460 h1         1 6QI       0.042033
     38 H6          -8.7990   -10.4120    16.8060 h1         1 6QI       0.042033
     39 H7          -9.8510   -11.5080    17.7420 h1         1 6QI       0.042033
     40 H8         -15.9690   -15.2340    12.8080 h1         1 6QI       0.061200
     41 H9         -15.0000   -15.3630    11.3470 h1         1 6QI       0.061200
     42 H10        -14.8470   -17.0130    13.6660 hc         1 6QI       0.059700
     43 H11        -12.4470   -16.8290    14.2930 h1         1 6QI       0.053200
     44 H12        -12.3270   -15.3380    13.3640 h1         1 6QI       0.053200
     45 H13        -14.6960   -14.0430    16.0700 h1         1 6QI       0.047700
     46 H14        -15.4510   -15.1850    14.9650 h1         1 6QI       0.047700
     47 H15        -13.8710   -12.6710    14.2890 h1         1 6QI       0.056700
     48 H16        -15.6050   -12.9340    14.0820 h1         1 6QI       0.056700
     49 H17        -12.8740   -16.7870    11.3560 hc         1 6QI       0.061700
     50 H18        -14.4340   -17.5890    11.2710 hc         1 6QI       0.061700
     51 H19        -11.3360   -21.9490    13.8150 ha         1 6QI       0.120000
     52 H20         -9.9510   -20.1200    12.8670 ha         1 6QI       0.114000
     53 H21        -10.9730   -18.0560    12.0150 ha         1 6QI       0.116000
     54 H22        -15.9940   -19.2100    12.9370 h4         1 6QI       0.046800
     55 H23        -11.7200   -12.2220    10.2100 hc         1 6QI       0.052450
     56 H24        -11.6630   -10.6230    10.9480 hc         1 6QI       0.052450
     57 H25        -13.2180    -9.9920     9.3280 hc         1 6QI       0.046700
     58 H26        -13.6860   -11.6490     8.9800 hc         1 6QI       0.046700
     59 H27        -15.2390    -9.8730    10.5840 hc         1 6QI       0.046700
     60 H28        -15.4040   -11.6200    10.5570 hc         1 6QI       0.046700
     61 H29        -13.6740    -9.9600    12.4320 hc         1 6QI       0.052450
     62 H30        -14.8620   -11.1710    12.8910 hc         1 6QI       0.052450
     63 H31        -14.1360   -22.5560    14.2900 hn         1 6QI       0.375000
@<TRIPOS>BOND
     1     1     2 ar  
     2     1     6 ar  
     3     1    33 1   
     4     2     3 ar  
     5     2    34 1   
     6     3     4 ar  
     7     3     8 1   
     8     4     5 ar  
     9     4    35 1   
    10     5     6 ar  
    11     5    36 1   
    12     6    30 1   
    13     7    30 1   
    14     7    37 1   
    15     7    38 1   
    16     7    39 1   
    17     8     9 1   
    18     8    23 1   
    19     8    26 1   
    20     9    27 1   
    21     9    32 2   
    22    10    11 1   
    23    10    27 1   
    24    10    40 1   
    25    10    41 1   
    26    11    12 1   
    27    11    15 1   
    28    11    42 1   
    29    12    31 1   
    30    12    43 1   
    31    12    44 1   
    32    13    14 1   
    33    13    31 1   
    34    13    45 1   
    35    13    46 1   
    36    14    27 1   
    37    14    47 1   
    38    14    48 1   
    39    15    16 1   
    40    15    49 1   
    41    15    50 1   
    42    16    17 ar  
    43    16    21 ar  
    44    17    18 ar  
    45    17    22 1   
    46    18    19 ar  
    47    18    28 1   
    48    19    20 ar  
    49    19    51 1   
    50    20    21 ar  
    51    20    52 1   
    52    21    53 1   
    53    22    29 2   
    54    22    54 1   
    55    23    24 1   
    56    23    55 1   
    57    23    56 1   
    58    24    25 1   
    59    24    57 1   
    60    24    58 1   
    61    25    26 1   
    62    25    59 1   
    63    25    60 1   
    64    26    61 1   
    65    26    62 1   
    66    28    29 1   
    67    28    63 1   
@<TRIPOS>SUBSTRUCTURE
     1 6QI         1 TEMP              0 ****  ****    0 ROOT
