@<TRIPOS>MOLECULE
6QJ
   38    40     1     0     0
SMALL
No Charge or Current Charge


@<TRIPOS>ATOM
      1 C1          -3.1080    -1.8260    -0.1780 ca         1 6QJ      -0.178300
      2 C2          -2.2150    -0.7470    -0.0110 ca         1 6QJ      -0.028000
      3 C3          -2.6350     0.6050    -0.1570 cp         1 6QJ      -0.191500
      4 C4          -1.6670     1.7450     0.0260 cp         1 6QJ       0.421500
      5 C5          -2.0820     3.0630     0.3370 ca         1 6QJ      -0.137000
      6 C6          -1.1260     4.0770     0.5010 ca         1 6QJ      -0.082000
      7 C7           0.2290     3.7420     0.3580 ca         1 6QJ      -0.115000
      8 C8           0.5950     2.4100     0.0660 ca         1 6QJ       0.282500
      9 C9           2.0770     2.0570    -0.1060 c          1 6QJ       0.495200
     10 C10          2.5260     0.6110     0.0030 ca         1 6QJ      -0.127600
     11 C13          3.4210    -2.0620     0.1920 ca         1 6QJ       0.093000
     12 C12          2.3690    -1.6180     1.0050 ca         1 6QJ      -0.128000
     13 C11          1.9250    -0.2860     0.9170 ca         1 6QJ      -0.065000
     14 C14          4.0440    -1.1760    -0.7100 ca         1 6QJ       0.098100
     15 C15          3.5990     0.1540    -0.7970 ca         1 6QJ      -0.081000
     16 O            2.9150     2.9300    -0.3280 o          1 6QJ      -0.509100
     17 N           -0.3550     1.4450    -0.1040 nb         1 6QJ      -0.666000
     18 C16         -3.9960     0.8330    -0.4880 ca         1 6QJ      -0.056000
     19 C17         -4.8900    -0.2360    -0.6560 ca         1 6QJ      -0.155000
     20 C18         -4.4530    -1.5580    -0.5010 ca         1 6QJ       0.158100
     21 C           -2.5990    -3.2560    -0.0040 c3         1 6QJ      -0.050800
     22 H1          -1.1790    -0.9630     0.2430 ha         1 6QJ       0.134000
     23 H2          -3.1330     3.2980     0.4650 ha         1 6QJ       0.126000
     24 H3          -1.4270     5.0960     0.7380 ha         1 6QJ       0.124000
     25 H4           0.9920     4.5070     0.4800 ha         1 6QJ       0.143000
     26 H5           5.2490    -2.5430    -1.3060 ho         1 6QJ       0.478000
     27 H6          -4.8760    -3.4190    -0.5280 ho         1 6QJ       0.470000
     28 H7           1.9000    -2.3030     1.7080 ha         1 6QJ       0.133000
     29 H8           1.1230     0.0440     1.5730 ha         1 6QJ       0.132000
     30 H9           4.0860     0.8310    -1.4960 ha         1 6QJ       0.148000
     31 H10         -4.3700     1.8430    -0.6350 ha         1 6QJ       0.114000
     32 H11         -5.9270    -0.0380    -0.9120 ha         1 6QJ       0.131000
     33 H12         -3.1290    -3.7710     0.8060 hc         1 6QJ       0.043700
     34 H13         -2.7300    -3.8390    -0.9230 hc         1 6QJ       0.043700
     35 H14         -1.5300    -3.2800     0.2440 hc         1 6QJ       0.043700
     36 O1           5.0780    -1.5960    -1.5030 oh         1 6QJ      -0.523100
     37 O2          -5.3480    -2.5730    -0.6710 oh         1 6QJ      -0.535100
     38 F            3.8410    -3.3450     0.2860 f          1 6QJ      -0.184000
@<TRIPOS>BOND
     1     1     2 ar  
     2     1    20 ar  
     3     1    21 1   
     4     2     3 ar  
     5     2    22 1   
     6     3     4 1   
     7     3    18 ar  
     8     4     5 ar  
     9     4    17 ar  
    10     5     6 ar  
    11     5    23 1   
    12     6     7 ar  
    13     6    24 1   
    14     7     8 ar  
    15     7    25 1   
    16     8     9 1   
    17     8    17 ar  
    18     9    10 1   
    19     9    16 2   
    20    10    13 ar  
    21    10    15 ar  
    22    11    12 ar  
    23    11    14 ar  
    24    11    38 1   
    25    12    13 ar  
    26    12    28 1   
    27    13    29 1   
    28    14    15 ar  
    29    14    36 1   
    30    15    30 1   
    31    18    19 ar  
    32    18    31 1   
    33    19    20 ar  
    34    19    32 1   
    35    20    37 1   
    36    21    33 1   
    37    21    34 1   
    38    21    35 1   
    39    26    36 1   
    40    27    37 1   
@<TRIPOS>SUBSTRUCTURE
     1 6QJ         1 TEMP              0 ****  ****    0 ROOT
