@<TRIPOS>MOLECULE
6QJ
   38    40     1     0     0
SMALL
bcc


@<TRIPOS>ATOM
      1 C1          -2.9920    -1.7880    -0.2910 ca         1 6QJ      -0.178300
      2 C2          -2.1410    -0.7020    -0.1710 ca         1 6QJ      -0.046000
      3 C3          -2.6010     0.6160    -0.1470 cp         1 6QJ      -0.191500
      4 C4          -1.6430     1.7280     0.0060 cp         1 6QJ       0.486800
      5 C5          -2.0420     3.0330     0.3150 ca         1 6QJ      -0.220300
      6 C6          -1.0830     4.0190     0.4530 ca         1 6QJ      -0.100000
      7 C7           0.2550     3.6970     0.2850 ca         1 6QJ      -0.198300
      8 C8           0.5640     2.3730    -0.0010 ca         1 6QJ       0.347800
      9 C9           1.9900     1.9740    -0.2220 c          1 6QJ       0.495200
     10 C10          2.4000     0.5590    -0.0160 ca         1 6QJ      -0.127600
     11 C13          3.3280    -2.0020     0.3690 ca         1 6QJ       0.057900
     12 C12          2.2740    -1.5490     1.1310 ca         1 6QJ      -0.146000
     13 C11          1.7970    -0.2630     0.9330 ca         1 6QJ      -0.083000
     14 C14          3.9530    -1.2060    -0.5890 ca         1 6QJ       0.098100
     15 C15          3.4830     0.0870    -0.7580 ca         1 6QJ      -0.099000
     16 O            2.7950     2.8080    -0.5820 o          1 6QJ      -0.509100
     17 N           -0.3560     1.4290    -0.1390 nb         1 6QJ      -0.666000
     18 C16         -3.9740     0.8290    -0.2670 ca         1 6QJ      -0.074000
     19 C17         -4.8480    -0.2360    -0.3930 ca         1 6QJ      -0.173000
     20 C18         -4.3670    -1.5420    -0.4010 ca         1 6QJ       0.158100
     21 C           -2.4650    -3.1940    -0.3010 c3         1 6QJ      -0.050800
     22 H1          -1.0760    -0.8800    -0.0850 ha         1 6QJ       0.152000
     23 H2          -3.0840     3.2780     0.4640 ha         1 6QJ       0.144000
     24 H3          -1.3770     5.0310     0.6960 ha         1 6QJ       0.142000
     25 H4           1.0290     4.4440     0.3870 ha         1 6QJ       0.161000
     26 H5           5.2120    -2.5460    -1.1380 ho         1 6QJ       0.439000
     27 H6          -4.8450    -3.3960    -0.5240 ho         1 6QJ       0.431000
     28 H7           1.8290    -2.1990     1.8720 ha         1 6QJ       0.151000
     29 H8           0.9720     0.0870     1.5350 ha         1 6QJ       0.150000
     30 H9           3.9620     0.7230    -1.4910 ha         1 6QJ       0.166000
     31 H10         -4.3850     1.8300    -0.2750 ha         1 6QJ       0.132000
     32 H11         -5.9120    -0.0590    -0.4890 ha         1 6QJ       0.149000
     33 H12         -2.8420    -3.7800     0.5410 hc         1 6QJ       0.043700
     34 H13         -2.7330    -3.7260    -1.2170 hc         1 6QJ       0.043700
     35 H14         -1.3780    -3.2010    -0.2350 hc         1 6QJ       0.043700
     36 O1           4.9790    -1.6330    -1.3430 oh         1 6QJ      -0.484100
     37 O2          -5.2720    -2.5320    -0.5170 oh         1 6QJ      -0.496100
     38 F            3.7860    -3.2530     0.5400 f          1 6QJ      -0.148900
@<TRIPOS>BOND
     1     1     2 ar  
     2     1    20 ar  
     3     1    21 1   
     4     2     3 ar  
     5     2    22 1   
     6     3     4 1   
     7     3    18 ar  
     8     4     5 ar  
     9     4    17 ar  
    10     5     6 ar  
    11     5    23 1   
    12     6     7 ar  
    13     6    24 1   
    14     7     8 ar  
    15     7    25 1   
    16     8     9 1   
    17     8    17 ar  
    18     9    10 1   
    19     9    16 2   
    20    10    13 ar  
    21    10    15 ar  
    22    11    12 ar  
    23    11    14 ar  
    24    11    38 1   
    25    12    13 ar  
    26    12    28 1   
    27    13    29 1   
    28    14    15 ar  
    29    14    36 1   
    30    15    30 1   
    31    18    19 ar  
    32    18    31 1   
    33    19    20 ar  
    34    19    32 1   
    35    20    37 1   
    36    21    33 1   
    37    21    34 1   
    38    21    35 1   
    39    26    36 1   
    40    27    37 1   
@<TRIPOS>SUBSTRUCTURE
     1 6QJ         1 TEMP              0 ****  ****    0 ROOT
