@<TRIPOS>MOLECULE
6QK
   31    32     1     0     0
SMALL
abcg2


@<TRIPOS>ATOM
      1 C11         -3.5980    -0.1610    -0.1310 ca         1 6QK       0.380800
      2 C02          3.0310    -0.1590     0.1940 ca         1 6QK       0.117000
      3 C03          1.8290     0.5070     0.0020 ca         1 6QK      -0.042600
      4 C04          1.3530     0.8870    -1.3970 c          1 6QK       0.723600
      5 O05          1.5180     2.0780    -1.7020 o          1 6QK      -0.691000
      6 O06          0.8680    -0.0290    -2.0760 o          1 6QK      -0.691000
      7 C07          1.0990     0.8290     1.1480 ca         1 6QK      -0.124000
      8 S08         -0.4440     1.6910     1.0140 ss         1 6QK      -0.080300
      9 C09         -1.5200     0.3930     0.5030 ca         1 6QK       0.316300
     10 N10         -2.7630     0.7860     0.2760 nb         1 6QK      -0.273500
     11 O12         -4.8640     0.1470    -0.3700 os         1 6QK      -0.465800
     12 C13         -5.2900     1.4900    -0.1610 c3         1 6QK       0.159400
     13 C14         -3.2020    -1.4780    -0.3410 ca         1 6QK      -0.308000
     14 C15         -1.8660    -1.7430    -0.0700 ca         1 6QK       0.380800
     15 O16         -1.4040    -2.9660    -0.2740 os         1 6QK      -0.465800
     16 C17         -0.0000    -3.1760    -0.1110 c3         1 6QK       0.159400
     17 N18         -1.0330    -0.8170     0.3800 nb         1 6QK      -0.273500
     18 C19          1.5600     0.5110     2.4180 ca         1 6QK      -0.074000
     19 C20          2.7760    -0.1380     2.5710 ca         1 6QK      -0.159000
     20 C21          3.5180    -0.4790     1.4520 ca         1 6QK      -0.099000
     21 H2          -4.7540     2.1880    -0.8040 h1         1 6QK       0.048700
     22 H3          -6.3470     1.5060    -0.4120 h1         1 6QK       0.048700
     23 H4          -5.1610     1.7950     0.8770 h1         1 6QK       0.048700
     24 H5          -3.8850    -2.2360    -0.6970 ha         1 6QK       0.141000
     25 H6           0.3000    -3.0750     0.9320 h1         1 6QK       0.048700
     26 H7           0.1840    -4.1940    -0.4440 h1         1 6QK       0.048700
     27 H8           0.5760    -2.4720    -0.7110 h1         1 6QK       0.048700
     28 H9           0.9670     0.7670     3.2870 ha         1 6QK       0.104000
     29 H10          3.1450    -0.3820     3.5580 ha         1 6QK       0.094000
     30 H11          4.4680    -0.9870     1.5580 ha         1 6QK       0.104000
     31 CL01         3.9960    -0.5900    -1.1900 cl         1 6QK      -0.223000
@<TRIPOS>BOND
     1     1    10 ar  
     2     1    11 1   
     3     1    13 ar  
     4     2     3 ar  
     5     2    20 ar  
     6     2    31 1   
     7     3     4 1   
     8     3     7 ar  
     9     4     5 1   
    10     4     6 1   
    11     7     8 1   
    12     7    18 ar  
    13     8     9 1   
    14     9    10 ar  
    15     9    17 ar  
    16    11    12 1   
    17    12    21 1   
    18    12    22 1   
    19    12    23 1   
    20    13    14 ar  
    21    13    24 1   
    22    14    15 1   
    23    14    17 ar  
    24    15    16 1   
    25    16    25 1   
    26    16    26 1   
    27    16    27 1   
    28    18    19 ar  
    29    18    28 1   
    30    19    20 ar  
    31    19    29 1   
    32    20    30 1   
@<TRIPOS>SUBSTRUCTURE
     1 6QK         1 TEMP              0 ****  ****    0 ROOT
