@<TRIPOS>MOLECULE
6QK
   31    32     1     0     0
SMALL
No Charge or Current Charge


@<TRIPOS>ATOM
      1 C11         -3.5200    -0.1340    -0.2380 ca         1 6QK       0.380800
      2 C02          3.0350     0.2130    -0.1490 ca         1 6QK       0.117000
      3 C03          1.7820     0.8390     0.0160 ca         1 6QK      -0.042600
      4 C04          1.1370     1.5300    -1.1560 c          1 6QK       0.723600
      5 O05          1.3260     2.7320    -1.2910 o          1 6QK      -0.691000
      6 O06          0.4630     0.8580    -1.9250 o          1 6QK      -0.691000
      7 C07          1.1540     0.8080     1.2860 ca         1 6QK      -0.124000
      8 S08         -0.4520     1.5660     1.5440 ss         1 6QK      -0.080300
      9 C09         -1.5240     0.3380     0.7970 ca         1 6QK       0.316300
     10 N10         -2.7070     0.7790     0.3280 nb         1 6QK      -0.273500
     11 O12         -4.7490     0.2230    -0.7460 os         1 6QK      -0.465800
     12 C13         -5.2070     1.5900    -0.6960 c3         1 6QK       0.159400
     13 C14         -3.1460    -1.4770    -0.3270 ca         1 6QK      -0.308000
     14 C15         -1.9020    -1.8460     0.1870 ca         1 6QK       0.380800
     15 O16         -1.5330    -3.1700     0.0970 os         1 6QK      -0.465800
     16 C17         -0.2460    -3.6150     0.5730 c3         1 6QK       0.159400
     17 N18         -1.0900    -0.9380     0.7570 nb         1 6QK      -0.273500
     18 C19          1.7800     0.1620     2.3670 ca         1 6QK      -0.074000
     19 C20          3.0270    -0.4590     2.1930 ca         1 6QK      -0.159000
     20 C21          3.6520    -0.4340     0.9360 ca         1 6QK      -0.099000
     21 H2          -4.5260     2.2510    -1.2480 h1         1 6QK       0.048700
     22 H3          -6.2030     1.6760    -1.1480 h1         1 6QK       0.048700
     23 H4          -5.2730     1.9440     0.3410 h1         1 6QK       0.048700
     24 H5          -3.8010    -2.2100    -0.7840 ha         1 6QK       0.141000
     25 H6          -0.1360    -3.4190     1.6480 h1         1 6QK       0.048700
     26 H7          -0.1300    -4.6940     0.4110 h1         1 6QK       0.048700
     27 H8           0.5670    -3.1020     0.0420 h1         1 6QK       0.048700
     28 H9           1.2960     0.1360     3.3410 ha         1 6QK       0.104000
     29 H10          3.5060    -0.9600     3.0300 ha         1 6QK       0.094000
     30 H11          4.6180    -0.9150     0.8010 ha         1 6QK       0.104000
     31 Cl01         3.8630     0.2240    -1.7060 cl         1 6QK      -0.223000
@<TRIPOS>BOND
     1     1    10 ar  
     2     1    11 1   
     3     1    13 ar  
     4     2     3 ar  
     5     2    20 ar  
     6     2    31 1   
     7     3     4 1   
     8     3     7 ar  
     9     4     5 1   
    10     4     6 1   
    11     7     8 1   
    12     7    18 ar  
    13     8     9 1   
    14     9    10 ar  
    15     9    17 ar  
    16    11    12 1   
    17    12    21 1   
    18    12    22 1   
    19    12    23 1   
    20    13    14 ar  
    21    13    24 1   
    22    14    15 1   
    23    14    17 ar  
    24    15    16 1   
    25    16    25 1   
    26    16    26 1   
    27    16    27 1   
    28    18    19 ar  
    29    18    28 1   
    30    19    20 ar  
    31    19    29 1   
    32    20    30 1   
@<TRIPOS>SUBSTRUCTURE
     1 6QK         1 TEMP              0 ****  ****    0 ROOT
