@<TRIPOS>MOLECULE
6QL
   48    50     1     0     0
SMALL
bcc


@<TRIPOS>ATOM
      1 O01          0.4050    -1.1700    -0.7270 o          1 6QL      -0.805800
      2 C02         -0.0270    -0.0900    -0.2890 c          1 6QL       0.933200
      3 C03         -0.0110     0.0780     1.2300 ca         1 6QL      -0.128600
      4 C04          1.0500    -0.3770     2.0140 ca         1 6QL       0.142100
      5 O05          2.1240    -1.0480     1.4710 os         1 6QL      -0.336400
      6 C06          2.8690    -0.4740     0.5230 ca         1 6QL       0.994300
      7 N07          3.7430    -1.2910    -0.0300 nb         1 6QL      -0.840500
      8 C08          4.5090    -0.7550    -0.9690 ca         1 6QL       0.733100
      9 O09          5.4180    -1.5080    -1.5690 os         1 6QL      -0.441850
     10 C10          5.5370    -2.8730    -1.1820 c3         1 6QL       0.135450
     11 C11          4.4030     0.5730    -1.3700 ca         1 6QL      -0.480100
     12 C12          3.4480     1.3160    -0.6880 ca         1 6QL       0.733100
     13 O13          3.2810     2.5860    -1.0180 os         1 6QL      -0.441850
     14 C14          2.2360     3.3140    -0.3730 c3         1 6QL       0.135450
     15 N15          2.7010     0.8040     0.2790 nb         1 6QL      -0.840500
     16 C16          1.0830    -0.2290     3.3910 ca         1 6QL      -0.160000
     17 C17          0.0180     0.3750     4.0370 ca         1 6QL      -0.139000
     18 C18         -1.0580     0.8380     3.3000 ca         1 6QL      -0.160000
     19 C19         -1.0520     0.6980     1.9210 ca         1 6QL       0.142100
     20 O20         -2.1240     1.2710     1.2730 os         1 6QL      -0.336400
     21 C21         -2.8940     0.5500     0.4550 ca         1 6QL       0.994300
     22 N22         -2.7720    -0.7560     0.4630 nb         1 6QL      -0.840500
     23 C23         -3.5470    -1.4180    -0.3830 ca         1 6QL       0.733100
     24 O24         -3.4340    -2.7350    -0.4550 os         1 6QL      -0.441850
     25 C25         -2.4020    -3.3590     0.3090 c3         1 6QL       0.135450
     26 C26         -4.4780    -0.7880    -1.1980 ca         1 6QL      -0.480100
     27 C27         -4.5350     0.5950    -1.0620 ca         1 6QL       0.733100
     28 O28         -5.4180     1.2510    -1.7990 os         1 6QL      -0.441850
     29 C29         -5.4830     2.6690    -1.6870 c3         1 6QL       0.135450
     30 N30         -3.7460     1.2750    -0.2430 nb         1 6QL      -0.840500
     31 O31         -0.4720     0.8680    -0.9430 o          1 6QL      -0.805800
     32 H2           6.3360    -3.2830    -1.7940 h1         1 6QL       0.049200
     33 H3           5.7990    -2.9740    -0.1290 h1         1 6QL       0.049200
     34 H4           4.6170    -3.4270    -1.3720 h1         1 6QL       0.049200
     35 H5           5.0160     0.9930    -2.1540 ha         1 6QL       0.160000
     36 H6           2.4490     3.4630     0.6850 h1         1 6QL       0.049200
     37 H7           2.2010     4.2790    -0.8720 h1         1 6QL       0.049200
     38 H8           1.2770     2.8050    -0.4730 h1         1 6QL       0.049200
     39 H9           1.9380    -0.5910     3.9490 ha         1 6QL       0.127000
     40 H10          0.0280     0.4880     5.1130 ha         1 6QL       0.115000
     41 H11         -1.8990     1.3150     3.7860 ha         1 6QL       0.127000
     42 H12         -2.5710    -3.2430     1.3800 h1         1 6QL       0.049200
     43 H13         -2.4430    -4.4130     0.0490 h1         1 6QL       0.049200
     44 H14         -1.4240    -2.9480     0.0600 h1         1 6QL       0.049200
     45 H15         -5.1100    -1.3300    -1.8870 ha         1 6QL       0.160000
     46 H16         -6.2620     2.9830    -2.3750 h1         1 6QL       0.049200
     47 H17         -5.7450     2.9820    -0.6760 h1         1 6QL       0.049200
     48 H18         -4.5400     3.1380    -1.9680 h1         1 6QL       0.049200
@<TRIPOS>BOND
     1     1     2 1   
     2     2     3 1   
     3     2    31 1   
     4     3     4 ar  
     5     3    19 ar  
     6     4     5 1   
     7     4    16 ar  
     8     5     6 1   
     9     6     7 ar  
    10     6    15 ar  
    11     7     8 ar  
    12     8     9 1   
    13     8    11 ar  
    14     9    10 1   
    15    10    32 1   
    16    10    33 1   
    17    10    34 1   
    18    11    12 ar  
    19    11    35 1   
    20    12    13 1   
    21    12    15 ar  
    22    13    14 1   
    23    14    36 1   
    24    14    37 1   
    25    14    38 1   
    26    16    17 ar  
    27    16    39 1   
    28    17    18 ar  
    29    17    40 1   
    30    18    19 ar  
    31    18    41 1   
    32    19    20 1   
    33    20    21 1   
    34    21    22 ar  
    35    21    30 ar  
    36    22    23 ar  
    37    23    24 1   
    38    23    26 ar  
    39    24    25 1   
    40    25    42 1   
    41    25    43 1   
    42    25    44 1   
    43    26    27 ar  
    44    26    45 1   
    45    27    28 1   
    46    27    30 ar  
    47    28    29 1   
    48    29    46 1   
    49    29    47 1   
    50    29    48 1   
@<TRIPOS>SUBSTRUCTURE
     1 6QL         1 TEMP              0 ****  ****    0 ROOT
