@<TRIPOS>MOLECULE
6QL
   48    50     1     0     0
SMALL
No Charge or Current Charge


@<TRIPOS>ATOM
      1 O01         -0.5510    -1.1830    -2.3950 o          1 6QL      -0.700500
      2 C02         -0.0290    -0.1870    -1.9150 c          1 6QL       0.722600
      3 C03         -0.0220    -0.0440    -0.4280 ca         1 6QL      -0.128600
      4 C04          1.1330    -0.3600     0.3090 ca         1 6QL       0.142100
      5 O05          2.2540    -0.8280    -0.3400 os         1 6QL      -0.336400
      6 C06          3.4900    -0.2310    -0.2200 ca         1 6QL       0.468300
      7 N07          4.5490    -0.9900    -0.5560 nb         1 6QL      -0.314500
      8 C08          5.7660    -0.4300    -0.4550 ca         1 6QL       0.404800
      9 O09          6.9030    -1.1360    -0.7770 os         1 6QL      -0.465050
     10 C10          6.8280    -2.5020    -1.2340 c3         1 6QL       0.158650
     11 C11          5.9220     0.8850    -0.0210 ca         1 6QL      -0.331500
     12 C12          4.7740     1.6040     0.3050 ca         1 6QL       0.404800
     13 O13          4.9290     2.9020     0.7340 os         1 6QL      -0.465050
     14 C14          3.7880     3.7060     1.1000 c3         1 6QL       0.158650
     15 N15          3.5550     1.0480     0.2030 nb         1 6QL      -0.314500
     16 C16          1.1350    -0.2380     1.7120 ca         1 6QL      -0.142000
     17 C17         -0.0100     0.2250     2.3810 ca         1 6QL      -0.121000
     18 C18         -1.1610     0.5540     1.6470 ca         1 6QL      -0.142000
     19 C19         -1.1720     0.4070     0.2460 ca         1 6QL       0.142100
     20 O20         -2.2990     0.7440    -0.4700 os         1 6QL      -0.336400
     21 C21         -3.5330     0.1820    -0.2280 ca         1 6QL       0.468300
     22 N22         -3.5940    -0.9940     0.4310 nb         1 6QL      -0.314500
     23 C23         -4.8110    -1.5190     0.6470 ca         1 6QL       0.404800
     24 O24         -4.9610    -2.7120     1.3160 os         1 6QL      -0.465050
     25 C25         -3.8170    -3.4320     1.8180 c3         1 6QL       0.158650
     26 C26         -5.9620    -0.8740     0.2010 ca         1 6QL      -0.331500
     27 C27         -5.8120     0.3350    -0.4760 ca         1 6QL       0.404800
     28 O28         -6.9520     0.9680    -0.9160 os         1 6QL      -0.465050
     29 C29         -6.8820     2.2220    -1.6250 c3         1 6QL       0.158650
     30 N30         -4.5950     0.8640    -0.6930 nb         1 6QL      -0.314500
     31 O31          0.4870     0.7010    -2.5800 o          1 6QL      -0.700500
     32 H2           7.8330    -2.8920    -1.4390 h1         1 6QL       0.049200
     33 H3           6.3620    -3.1440    -0.4750 h1         1 6QL       0.049200
     34 H4           6.2410    -2.5740    -2.1590 h1         1 6QL       0.049200
     35 H5           6.9050     1.3340     0.0610 ha         1 6QL       0.142000
     36 H6           3.2360     3.2470     1.9310 h1         1 6QL       0.049200
     37 H7           4.1110     4.7050     1.4170 h1         1 6QL       0.049200
     38 H8           3.1040     3.8240     0.2500 h1         1 6QL       0.049200
     39 H9           2.0230    -0.5000     2.2810 ha         1 6QL       0.109000
     40 H10         -0.0050     0.3290     3.4640 ha         1 6QL       0.097000
     41 H11         -2.0440     0.9200     2.1640 ha         1 6QL       0.109000
     42 H12         -3.2570    -2.8250     2.5410 h1         1 6QL       0.049200
     43 H13         -4.1350    -4.3530     2.3220 h1         1 6QL       0.049200
     44 H14         -3.1390    -3.7100     1.0000 h1         1 6QL       0.049200
     45 H15         -6.9440    -1.2990     0.3750 ha         1 6QL       0.142000
     46 H16         -7.8890     2.5670    -1.8920 h1         1 6QL       0.049200
     47 H17         -6.4100     2.9960    -1.0060 h1         1 6QL       0.049200
     48 H18         -6.3030     2.1160    -2.5520 h1         1 6QL       0.049200
@<TRIPOS>BOND
     1     1     2 1   
     2     2     3 1   
     3     2    31 1   
     4     3     4 ar  
     5     3    19 ar  
     6     4     5 1   
     7     4    16 ar  
     8     5     6 1   
     9     6     7 ar  
    10     6    15 ar  
    11     7     8 ar  
    12     8     9 1   
    13     8    11 ar  
    14     9    10 1   
    15    10    32 1   
    16    10    33 1   
    17    10    34 1   
    18    11    12 ar  
    19    11    35 1   
    20    12    13 1   
    21    12    15 ar  
    22    13    14 1   
    23    14    36 1   
    24    14    37 1   
    25    14    38 1   
    26    16    17 ar  
    27    16    39 1   
    28    17    18 ar  
    29    17    40 1   
    30    18    19 ar  
    31    18    41 1   
    32    19    20 1   
    33    20    21 1   
    34    21    22 ar  
    35    21    30 ar  
    36    22    23 ar  
    37    23    24 1   
    38    23    26 ar  
    39    24    25 1   
    40    25    42 1   
    41    25    43 1   
    42    25    44 1   
    43    26    27 ar  
    44    26    45 1   
    45    27    28 1   
    46    27    30 ar  
    47    28    29 1   
    48    29    46 1   
    49    29    47 1   
    50    29    48 1   
@<TRIPOS>SUBSTRUCTURE
     1 6QL         1 TEMP              0 ****  ****    0 ROOT
