@<TRIPOS>MOLECULE
6QM
   42    44     1     0     0
SMALL
bcc


@<TRIPOS>ATOM
      1 N1          -2.8980     3.1060     0.6720 nc         1 6QM      -0.139100
      2 N2          -3.0850     1.8590     0.5360 nd         1 6QM      -0.356000
      3 C3          -1.9740     1.1070     0.2920 cd         1 6QM       0.381800
      4 C4          -0.8220     1.8710     0.2680 cc         1 6QM      -0.102400
      5 C6          -2.1350    -0.3350     0.0930 ca         1 6QM      -0.265500
      6 C7           0.5820     1.4910     0.1240 ca         1 6QM      -0.074000
      7 C16          1.4210     2.1660    -0.7660 ca         1 6QM      -0.064500
      8 C15          2.7490     1.8120    -0.8940 ca         1 6QM      -0.197500
      9 C14          3.2770     0.7690    -0.1290 ca         1 6QM       0.164100
     10 C13          2.4490     0.0930     0.7690 ca         1 6QM      -0.197500
     11 C12          1.1190     0.4600     0.8910 ca         1 6QM      -0.064500
     12 C21         -3.2150    -1.0340     0.6640 ca         1 6QM       0.223100
     13 C22         -3.3040    -2.4120     0.5050 ca         1 6QM      -0.224000
     14 C23         -2.3520    -3.1080    -0.2250 ca         1 6QM       0.197100
     15 C24         -1.2890    -2.4340    -0.8440 ca         1 6QM      -0.218300
     16 C25         -1.2220    -1.0640    -0.6710 ca         1 6QM      -0.026000
     17 O29         -2.5160    -4.4420    -0.3110 oh         1 6QM      -0.494100
     18 O30         -4.1850    -0.4400     1.3770 oh         1 6QM      -0.502100
     19 O33          4.5740     0.4900    -0.3190 os         1 6QM      -0.322900
     20 S1          -1.2860     3.4850     0.5200 ss         1 6QM       0.165200
     21 C34          5.1620    -0.5920     0.3960 c3         1 6QM       0.141400
     22 CAA          6.6140    -0.6850    -0.0030 c3         1 6QM      -0.095100
     23 CAL         -0.2220    -3.1640    -1.6170 c3         1 6QM      -0.023100
     24 CAB          0.8220    -3.8160    -0.7090 c3         1 6QM      -0.093100
     25 H25         -0.4140    -0.5360    -1.1600 ha         1 6QM       0.137000
     26 H16          1.0280     2.9670    -1.3810 ha         1 6QM       0.141500
     27 H12          0.4930    -0.0680     1.5980 ha         1 6QM       0.141500
     28 H15          3.3870     2.3370    -1.5930 ha         1 6QM       0.145000
     29 H13          2.8230    -0.7140     1.3850 ha         1 6QM       0.145000
     30 H22         -4.1360    -2.9440     0.9500 ha         1 6QM       0.164000
     31 H30         -4.1480     0.5250     1.2380 ho         1 6QM       0.467000
     32 H29         -1.8880    -4.8300    -0.9290 ho         1 6QM       0.431000
     33 HAL1        -0.6570    -3.9180    -2.2820 hc         1 6QM       0.043700
     34 HAL2         0.2750    -2.4580    -2.2840 hc         1 6QM       0.043700
     35 H341         5.0720    -0.4230     1.4740 h1         1 6QM       0.036200
     36 H342         4.6380    -1.5240     0.1600 h1         1 6QM       0.036200
     37 HAA1         6.7250    -0.8770    -1.0700 hc         1 6QM       0.049367
     38 HAA2         7.1560     0.2280     0.2470 hc         1 6QM       0.049367
     39 HAA3         7.0810    -1.5090     0.5360 hc         1 6QM       0.049367
     40 HAB1         1.3470    -3.0620    -0.1220 hc         1 6QM       0.035700
     41 HAB2         0.3700    -4.5200    -0.0080 hc         1 6QM       0.035700
     42 HAB3         1.5610    -4.3620    -1.2950 hc         1 6QM       0.035700
@<TRIPOS>BOND
     1     1     2 2   
     2     1    20 1   
     3     2     3 1   
     4     3     4 2   
     5     3     5 1   
     6     4     6 1   
     7     4    20 1   
     8     5    12 ar  
     9     5    16 ar  
    10     6     7 ar  
    11     6    11 ar  
    12     7     8 ar  
    13     7    26 1   
    14     8     9 ar  
    15     8    28 1   
    16     9    10 ar  
    17     9    19 1   
    18    10    11 ar  
    19    10    29 1   
    20    11    27 1   
    21    12    13 ar  
    22    12    18 1   
    23    13    14 ar  
    24    13    30 1   
    25    14    15 ar  
    26    14    17 1   
    27    15    16 ar  
    28    15    23 1   
    29    16    25 1   
    30    17    32 1   
    31    18    31 1   
    32    19    21 1   
    33    21    22 1   
    34    21    35 1   
    35    21    36 1   
    36    22    37 1   
    37    22    38 1   
    38    22    39 1   
    39    23    24 1   
    40    23    33 1   
    41    23    34 1   
    42    24    40 1   
    43    24    41 1   
    44    24    42 1   
@<TRIPOS>SUBSTRUCTURE
     1 6QM         1 TEMP              0 ****  ****    0 ROOT
