@<TRIPOS>MOLECULE
6QM
   42    44     1     0     0
SMALL
No Charge or Current Charge


@<TRIPOS>ATOM
      1 N1          -2.9700     3.1910     0.6930 nc         1 6QM      -0.139100
      2 N2          -3.1710     1.8970     0.6300 nd         1 6QM      -0.356000
      3 C3          -2.0190     1.1620     0.3760 cd         1 6QM       0.316500
      4 C4          -0.9270     1.9940     0.2220 cc         1 6QM      -0.182000
      5 C6          -2.1000    -0.3160     0.1830 ca         1 6QM      -0.265500
      6 C7           0.4570     1.5350     0.1090 ca         1 6QM      -0.074000
      7 C16          1.2850     2.0400    -0.9090 ca         1 6QM      -0.046500
      8 C15          2.6100     1.5870    -1.0320 ca         1 6QM      -0.179500
      9 C14          3.1230     0.6350    -0.1380 ca         1 6QM       0.164100
     10 C13          2.3020     0.1420     0.8980 ca         1 6QM      -0.179500
     11 C12          0.9780     0.5960     1.0220 ca         1 6QM      -0.046500
     12 C21         -3.1550    -1.0900     0.7280 ca         1 6QM       0.223100
     13 C22         -3.2030    -2.4750     0.5350 ca         1 6QM      -0.206000
     14 C23         -2.2280    -3.1220    -0.2270 ca         1 6QM       0.197100
     15 C24         -1.2000    -2.3770    -0.8330 ca         1 6QM      -0.218300
     16 C25         -1.1560    -0.9840    -0.6320 ca         1 6QM      -0.008000
     17 O29         -2.3010    -4.4740    -0.3750 oh         1 6QM      -0.533100
     18 O30         -4.1280    -0.5250     1.4910 oh         1 6QM      -0.541100
     19 O33          4.4260     0.2190    -0.3170 os         1 6QM      -0.346100
     20 S1          -1.3860     3.6520     0.4210 ss         1 6QM       0.310100
     21 C34          5.0310    -0.7810     0.5190 c3         1 6QM       0.164600
     22 CAA          6.4670    -1.0010     0.0160 c3         1 6QM      -0.095100
     23 CAL         -0.1200    -3.0230    -1.7030 c3         1 6QM      -0.023100
     24 CAB          1.1210    -3.4210    -0.8810 c3         1 6QM      -0.093100
     25 H25         -0.3800    -0.4270    -1.1470 ha         1 6QM       0.119000
     26 H16          0.8980     2.7710    -1.6160 ha         1 6QM       0.123500
     27 H12          0.3510     0.2090     1.8220 ha         1 6QM       0.123500
     28 H15          3.2420     1.9720    -1.8280 ha         1 6QM       0.127000
     29 H13          2.6690    -0.5910     1.6110 ha         1 6QM       0.127000
     30 H22         -4.0030    -3.0530     0.9860 ha         1 6QM       0.146000
     31 H30         -4.0150     0.4510     1.4030 ho         1 6QM       0.506000
     32 H29         -1.5220    -4.7580    -0.8960 ho         1 6QM       0.470000
     33 HAL1        -0.5030    -3.9030    -2.2340 hc         1 6QM       0.043700
     34 HAL2         0.1950    -2.3260    -2.4900 hc         1 6QM       0.043700
     35 H341         5.0570    -0.4510     1.5660 h1         1 6QM       0.036200
     36 H342         4.4750    -1.7270     0.4600 h1         1 6QM       0.036200
     37 HAA1         6.4630    -1.3440    -1.0250 hc         1 6QM       0.049367
     38 HAA2         7.0440    -0.0710     0.0780 hc         1 6QM       0.049367
     39 HAA3         6.9700    -1.7600     0.6270 hc         1 6QM       0.049367
     40 HAB1         1.5630    -2.5400    -0.4010 hc         1 6QM       0.035700
     41 HAB2         0.8560    -4.1440    -0.1010 hc         1 6QM       0.035700
     42 HAB3         1.8800    -3.8750    -1.5290 hc         1 6QM       0.035700
@<TRIPOS>BOND
     1     1     2 2   
     2     1    20 1   
     3     2     3 1   
     4     3     4 2   
     5     3     5 1   
     6     4     6 1   
     7     4    20 1   
     8     5    12 ar  
     9     5    16 ar  
    10     6     7 ar  
    11     6    11 ar  
    12     7     8 ar  
    13     7    26 1   
    14     8     9 ar  
    15     8    28 1   
    16     9    10 ar  
    17     9    19 1   
    18    10    11 ar  
    19    10    29 1   
    20    11    27 1   
    21    12    13 ar  
    22    12    18 1   
    23    13    14 ar  
    24    13    30 1   
    25    14    15 ar  
    26    14    17 1   
    27    15    16 ar  
    28    15    23 1   
    29    16    25 1   
    30    17    32 1   
    31    18    31 1   
    32    19    21 1   
    33    21    22 1   
    34    21    35 1   
    35    21    36 1   
    36    22    37 1   
    37    22    38 1   
    38    22    39 1   
    39    23    24 1   
    40    23    33 1   
    41    23    34 1   
    42    24    40 1   
    43    24    41 1   
    44    24    42 1   
@<TRIPOS>SUBSTRUCTURE
     1 6QM         1 TEMP              0 ****  ****    0 ROOT
