@<TRIPOS>MOLECULE
6QN
   28    29     1     0     0
SMALL
No Charge or Current Charge


@<TRIPOS>ATOM
      1 C4          -1.9360    -0.7760     0.0470 c          1 6QN       0.637300
      2 C6          -0.5790    -0.1890     0.0320 cc         1 6QN      -0.460400
      3 C7           0.5250    -1.0260     0.0170 cd         1 6QN       0.344900
      4 C8           1.8980    -0.5050     0.0020 ca         1 6QN      -0.142800
      5 C9           3.0510    -1.3230    -0.0130 ca         1 6QN      -0.066000
      6 C10          4.3230    -0.7190    -0.0270 ca         1 6QN       0.283900
      7 C12          3.3980     1.4050    -0.0120 ca         1 6QN       0.288900
      8 C13          2.0860     0.8780     0.0030 ca         1 6QN       0.067600
      9 N3          -2.9900     0.0930     0.0610 ns         1 6QN      -0.459900
     10 C1          -5.3230     0.9290     0.0900 c3         1 6QN      -0.112100
     11 C2          -4.3980    -0.2980     0.0770 c3         1 6QN       0.106000
     12 O5          -2.1200    -1.9860     0.0470 o          1 6QN      -0.681100
     13 N11          4.5060     0.6240    -0.0260 nb         1 6QN      -0.614000
     14 N14          0.9400     1.6880     0.0180 ns         1 6QN      -0.366100
     15 C16         -0.3680     1.2830     0.0320 c          1 6QN       0.608200
     16 O17         -1.2530     2.1210     0.0440 o          1 6QN      -0.592000
     17 O18          0.3890    -2.3620     0.0170 oh         1 6QN      -0.553100
     18 H25          2.9780    -2.4070    -0.0140 ha         1 6QN       0.146000
     19 H26          5.2250    -1.3310    -0.0380 h4         1 6QN       0.031100
     20 H27          3.5650     2.4820    -0.0120 h4         1 6QN       0.027100
     21 H24         -2.7480     1.0800     0.0600 hn         1 6QN       0.363500
     22 H19         -5.1390     1.5430     0.9800 hc         1 6QN       0.045700
     23 H20         -5.1600     1.5470    -0.8010 hc         1 6QN       0.045700
     24 H21         -6.3720     0.6130     0.1020 hc         1 6QN       0.045700
     25 H23         -4.6080    -0.9070    -0.8130 h1         1 6QN       0.053700
     26 H22         -4.5870    -0.9110     0.9680 h1         1 6QN       0.053700
     27 H15          1.0800     2.6910     0.0180 hn         1 6QN       0.337500
     28 H28         -0.6030    -2.4810     0.0280 ho         1 6QN       0.561000
@<TRIPOS>BOND
     1     1     2 1   
     2     1     9 1   
     3     1    12 2   
     4     2     3 2   
     5     2    15 1   
     6     3     4 1   
     7     3    17 1   
     8     4     5 ar  
     9     4     8 ar  
    10     5     6 ar  
    11     5    18 1   
    12     6    13 ar  
    13     6    19 1   
    14     7     8 ar  
    15     7    13 ar  
    16     7    20 1   
    17     8    14 1   
    18     9    11 1   
    19     9    21 1   
    20    10    11 1   
    21    10    22 1   
    22    10    23 1   
    23    10    24 1   
    24    11    25 1   
    25    11    26 1   
    26    14    15 1   
    27    14    27 1   
    28    15    16 2   
    29    17    28 1   
@<TRIPOS>SUBSTRUCTURE
     1 6QN         1 TEMP              0 ****  ****    0 ROOT
