@<TRIPOS>MOLECULE
6QN
   28    29     1     0     0
SMALL
bcc


@<TRIPOS>ATOM
      1 C4          -1.9160    -0.6490     0.0450 c          1 6QN       0.704300
      2 C6          -0.5530    -0.0840     0.0290 cc         1 6QN      -0.460400
      3 C7           0.5020    -0.9820     0.0150 cd         1 6QN       0.344900
      4 C8           1.8640    -0.5010     0.0020 ca         1 6QN      -0.142800
      5 C9           2.9820    -1.3380    -0.0110 ca         1 6QN      -0.149300
      6 C10          4.2350    -0.7670    -0.0230 ca         1 6QN       0.349200
      7 C12          3.3890     1.3540    -0.0100 ca         1 6QN       0.354200
      8 C13          2.0700     0.8760     0.0020 ca         1 6QN       0.002300
      9 N3          -2.9650     0.1570     0.0620 ns         1 6QN      -0.526900
     10 C1          -5.3060     0.8270     0.0910 c3         1 6QN      -0.112100
     11 C2          -4.3310    -0.3340     0.0790 c3         1 6QN       0.106000
     12 O5          -2.0600    -1.8950     0.0410 o          1 6QN      -0.681100
     13 N11          4.4310     0.5570    -0.0220 nb         1 6QN      -0.614000
     14 N14          1.0060     1.7290     0.0140 ns         1 6QN      -0.433100
     15 C16         -0.3070     1.3460     0.0280 c          1 6QN       0.750700
     16 O17         -1.1870     2.2070     0.0380 o          1 6QN      -0.667500
     17 O18          0.3310    -2.2720     0.0150 oh         1 6QN      -0.514100
     18 H25          2.8750    -2.4130    -0.0130 ha         1 6QN       0.164000
     19 H26          5.1210    -1.3890    -0.0320 h4         1 6QN       0.031100
     20 H27          3.5710     2.4240    -0.0090 h4         1 6QN       0.027100
     21 H24         -2.7840     1.1540     0.0610 hn         1 6QN       0.363500
     22 H19         -5.1720     1.4520     0.9750 hc         1 6QN       0.045700
     23 H20         -5.1910     1.4540    -0.7930 hc         1 6QN       0.045700
     24 H21         -6.3270     0.4490     0.1020 hc         1 6QN       0.045700
     25 H23         -4.5060    -0.9640    -0.7960 h1         1 6QN       0.053700
     26 H22         -4.4840    -0.9640     0.9580 h1         1 6QN       0.053700
     27 H15          1.1830     2.7250     0.0130 hn         1 6QN       0.337500
     28 H28         -0.6910    -2.4020     0.0250 ho         1 6QN       0.522000
@<TRIPOS>BOND
     1     1     2 1   
     2     1     9 1   
     3     1    12 2   
     4     2     3 2   
     5     2    15 1   
     6     3     4 1   
     7     3    17 1   
     8     4     5 ar  
     9     4     8 ar  
    10     5     6 ar  
    11     5    18 1   
    12     6    13 ar  
    13     6    19 1   
    14     7     8 ar  
    15     7    13 ar  
    16     7    20 1   
    17     8    14 1   
    18     9    11 1   
    19     9    21 1   
    20    10    11 1   
    21    10    22 1   
    22    10    23 1   
    23    10    24 1   
    24    11    25 1   
    25    11    26 1   
    26    14    15 1   
    27    14    27 1   
    28    15    16 2   
    29    17    28 1   
@<TRIPOS>SUBSTRUCTURE
     1 6QN         1 TEMP              0 ****  ****    0 ROOT
