@<TRIPOS>MOLECULE
6QO
   35    37     1     0     0
SMALL
abcg2


@<TRIPOS>ATOM
      1 C1           3.2450     0.3140    -1.0310 ca         1 6QO      -0.079000
      2 C2           2.2750     0.7210    -0.1170 ca         1 6QO      -0.130600
      3 C3           1.6890     2.0750    -0.2800 c          1 6QO       0.497200
      4 C4           0.2710     2.3180     0.1330 ca         1 6QO       0.274500
      5 C5          -0.1320     3.6010     0.4860 ca         1 6QO      -0.106000
      6 C6          -1.4640     3.7960     0.8100 ca         1 6QO      -0.086000
      7 C7          -2.3350     2.7220     0.7500 ca         1 6QO      -0.127000
      8 C8          -1.8400     1.4740     0.3740 cp         1 6QO       0.396500
      9 C9          -2.7510     0.3150     0.2560 cp         1 6QO      -0.141500
     10 C10         -3.9510     0.4280    -0.4440 ca         1 6QO      -0.111000
     11 C16          2.5620    -1.3270     1.1040 ca         1 6QO      -0.124000
     12 F1           4.1020    -2.9140     0.3010 f          1 6QO      -0.184000
     13 C17          3.5070    -1.7170     0.1800 ca         1 6QO       0.095000
     14 C            3.8660    -0.9190    -0.9050 ca         1 6QO       0.096100
     15 O            4.7880    -1.2850    -1.8100 oh         1 6QO      -0.525100
     16 C15          1.9320    -0.1020     0.9520 ca         1 6QO      -0.058000
     17 O1           2.3390     2.9850    -0.7510 o          1 6QO      -0.508100
     18 N           -0.5600     1.2840     0.0800 nb         1 6QO      -0.631000
     19 C14         -2.4450    -0.9070     0.8310 ca         1 6QO       0.107000
     20 F           -1.3150    -1.0550     1.5450 f          1 6QO      -0.178000
     21 C13         -3.2890    -2.0100     0.7420 ca         1 6QO       0.106100
     22 O2          -3.0010    -3.1920     1.3150 oh         1 6QO      -0.526100
     23 C12         -4.4740    -1.8760     0.0270 ca         1 6QO      -0.117000
     24 C11         -4.7990    -0.6620    -0.5590 ca         1 6QO      -0.090000
     25 H1           3.5210     0.9520    -1.8610 ha         1 6QO       0.146000
     26 H2           0.5760     4.4160     0.5190 ha         1 6QO       0.144000
     27 H3          -1.8210     4.7730     1.1090 ha         1 6QO       0.127000
     28 H4          -3.3800     2.8450     1.0030 ha         1 6QO       0.130000
     29 H5          -4.2090     1.3690    -0.9130 ha         1 6QO       0.123000
     30 H6           2.3210    -1.9800     1.9320 ha         1 6QO       0.134000
     31 H7           5.0660    -2.1990    -1.6820 ho         1 6QO       0.478000
     32 H8           1.1990     0.2070     1.6820 ha         1 6QO       0.132000
     33 H9          -2.2290    -3.1250     1.8890 ho         1 6QO       0.478000
     34 H10         -5.1390    -2.7260    -0.0550 ha         1 6QO       0.135000
     35 H11         -5.7220    -0.5700    -1.1160 ha         1 6QO       0.123000
@<TRIPOS>BOND
     1     1     2 ar  
     2     1    14 ar  
     3     1    25 1   
     4     2     3 1   
     5     2    16 ar  
     6     3     4 1   
     7     3    17 2   
     8     4     5 ar  
     9     4    18 ar  
    10     5     6 ar  
    11     5    26 1   
    12     6     7 ar  
    13     6    27 1   
    14     7     8 ar  
    15     7    28 1   
    16     8     9 1   
    17     8    18 ar  
    18     9    10 ar  
    19     9    19 ar  
    20    10    24 ar  
    21    10    29 1   
    22    11    13 ar  
    23    11    16 ar  
    24    11    30 1   
    25    12    13 1   
    26    13    14 ar  
    27    14    15 1   
    28    15    31 1   
    29    16    32 1   
    30    19    20 1   
    31    19    21 ar  
    32    21    22 1   
    33    21    23 ar  
    34    22    33 1   
    35    23    24 ar  
    36    23    34 1   
    37    24    35 1   
@<TRIPOS>SUBSTRUCTURE
     1 6QO         1 TEMP              0 ****  ****    0 ROOT
