@<TRIPOS>MOLECULE
6QP
   50    53     1     0     0
SMALL
No Charge or Current Charge


@<TRIPOS>ATOM
      1 C10          5.4840     3.4240     0.9440 c3         1 6QP       0.167600
      2 C15          2.2290    -1.7560    -1.0280 ca         1 6QP      -0.291500
      3 C17          0.2370    -2.6910    -2.0680 ca         1 6QP      -0.181000
      4 C20          1.1840    -3.7450    -0.0900 ca         1 6QP      -0.181000
      5 C21          2.2020    -2.7770    -0.0560 ca         1 6QP       0.021000
      6 C24          0.7100     3.2850     0.3180 ca         1 6QP      -0.111000
      7 C26         -4.1210    -0.2600     0.5660 ca         1 6QP      -0.204600
      8 O01         -3.4490     2.0040     0.8830 o          1 6QP      -0.550100
      9 C02         -3.1090     0.8500     0.6490 c          1 6QP       0.635700
     10 C04         -0.5750     1.2140     0.3900 ca         1 6QP      -0.049000
     11 C05          0.6300     0.4880     0.4180 ca         1 6QP      -0.121000
     12 C06          1.8830     1.1330     0.3680 ca         1 6QP       0.152000
     13 C07          1.9080     2.5560     0.3520 ca         1 6QP       0.128100
     14 O08          3.0960     3.2630     0.4290 os         1 6QP      -0.318100
     15 C09          4.3530     2.5460     0.3250 c6         1 6QP       0.136300
     16 O11          5.5810     4.7260     0.3400 oh         1 6QP      -0.639000
     17 C12          4.2560     1.1460     0.9930 c6         1 6QP       0.143800
     18 N13          3.0980     0.3980     0.4260 nh         1 6QP      -0.697300
     19 S14          3.5280    -0.5150    -0.9690 sy         1 6QP       1.125600
     20 C16          1.2450    -1.7130    -2.0380 ca         1 6QP       0.021000
     21 C18          0.2070    -3.6980    -1.0940 ca         1 6QP       0.225000
     22 F19         -0.7700    -4.6310    -1.1240 f          1 6QP      -0.168000
     23 O22          4.7890    -1.1990    -0.6620 o          1 6QP      -0.531500
     24 O23          3.4050     0.3750    -2.1280 o          1 6QP      -0.531500
     25 C25         -0.5280     2.6220     0.3210 ca         1 6QP      -0.084000
     26 C27         -4.1040    -1.2320    -0.4660 ca         1 6QP       0.166000
     27 Cl          -2.9570    -1.1720    -1.8060 cl         1 6QP      -0.180000
     28 C29         -5.0660    -2.2560    -0.4940 ca         1 6QP      -0.123000
     29 C30         -6.0580    -2.3300     0.4950 ca         1 6QP      -0.059000
     30 C31         -6.0910    -1.3660     1.5130 ca         1 6QP      -0.155000
     31 C32         -5.1350    -0.3390     1.5450 ca         1 6QP       0.220000
     32 F33         -5.1840     0.5490     2.5630 f          1 6QP      -0.160000
     33 H1           5.2920     3.5230     2.0210 h1         1 6QP       0.029700
     34 H2           6.4360     2.8870     0.8300 h1         1 6QP       0.029700
     35 H3          -0.5220    -2.6670    -2.8450 ha         1 6QP       0.140000
     36 H4           1.1530    -4.5310     0.6600 ha         1 6QP       0.140000
     37 H5           2.9590    -2.8130     0.7270 ha         1 6QP       0.146000
     38 H6           0.7430     4.3710     0.3000 ha         1 6QP       0.139000
     39 H7          -1.6690    -0.5190     0.2730 hn         1 6QP       0.157000
     40 H8           0.5840    -0.5910     0.5180 ha         1 6QP       0.123000
     41 H9           4.5780     2.4090    -0.7410 h1         1 6QP       0.083700
     42 H10          6.2810     5.2170     0.8260 ho         1 6QP       0.447000
     43 H11          5.2130     0.6170     0.8720 h1         1 6QP       0.090200
     44 H12          4.1150     1.2760     2.0760 h1         1 6QP       0.090200
     45 H13          1.2550    -0.9300    -2.7950 ha         1 6QP       0.146000
     46 H14         -1.4340     3.2200     0.2810 ha         1 6QP       0.154000
     47 H15         -5.0480    -2.9900    -1.2950 ha         1 6QP       0.140000
     48 H16         -6.8010    -3.1260     0.4680 ha         1 6QP       0.127000
     49 H17         -6.8560    -1.4140     2.2840 ha         1 6QP       0.143000
     50 N03         -1.7890     0.4720     0.4330 ns         1 6QP      -0.131000
@<TRIPOS>BOND
     1     1    15 1   
     2     1    16 1   
     3     1    33 1   
     4     1    34 1   
     5     2     5 ar  
     6     2    19 1   
     7     2    20 ar  
     8     3    20 ar  
     9     3    21 ar  
    10     3    35 1   
    11     4     5 ar  
    12     4    21 ar  
    13     4    36 1   
    14     5    37 1   
    15     6    13 ar  
    16     6    25 ar  
    17     6    38 1   
    18     7     9 1   
    19     7    26 ar  
    20     7    31 ar  
    21     8     9 2   
    22     9    50 1   
    23    10    11 ar  
    24    10    25 ar  
    25    10    50 1   
    26    11    12 ar  
    27    11    40 1   
    28    12    13 ar  
    29    12    18 1   
    30    13    14 1   
    31    14    15 1   
    32    15    17 1   
    33    15    41 1   
    34    16    42 1   
    35    17    18 1   
    36    17    43 1   
    37    17    44 1   
    38    18    19 1   
    39    19    23 2   
    40    19    24 2   
    41    20    45 1   
    42    21    22 1   
    43    25    46 1   
    44    26    27 1   
    45    26    28 ar  
    46    28    29 ar  
    47    28    47 1   
    48    29    30 ar  
    49    29    48 1   
    50    30    31 ar  
    51    30    49 1   
    52    31    32 1   
    53    39    50 1   
@<TRIPOS>SUBSTRUCTURE
     1 6QP         1 TEMP              0 ****  ****    0 ROOT
