@<TRIPOS>MOLECULE
6QP
   50    53     1     0     0
SMALL
bcc


@<TRIPOS>ATOM
      1 C10          5.2790     3.3480     1.0670 c3         1 6QP       0.144400
      2 C15          2.2300    -1.7150    -1.0590 ca         1 6QP      -0.291500
      3 C17          0.2430    -2.6200    -2.0350 ca         1 6QP      -0.199000
      4 C20          1.3270    -3.7490    -0.1800 ca         1 6QP      -0.199000
      5 C21          2.2980    -2.7650    -0.1500 ca         1 6QP       0.003000
      6 C24          0.7290     3.2090     0.2300 ca         1 6QP      -0.129000
      7 C26         -4.0280    -0.2500     0.4340 ca         1 6QP      -0.204600
      8 O01         -3.3830     2.0060     0.0810 o          1 6QP      -0.550100
      9 C02         -3.0330     0.8730     0.3410 c          1 6QP       0.702700
     10 C04         -0.5750     1.2000     0.4590 ca         1 6QP       0.043600
     11 C05          0.6060     0.4720     0.5280 ca         1 6QP      -0.139000
     12 C06          1.8380     1.0930     0.3940 ca         1 6QP       0.013600
     13 C07          1.9120     2.4790     0.2640 ca         1 6QP       0.128100
     14 O08          3.0730     3.1550     0.2000 os         1 6QP      -0.294900
     15 C09          4.3100     2.4520     0.3310 c6         1 6QP       0.113100
     16 O11          5.4940     4.5070     0.3040 oh         1 6QP      -0.576800
     17 C12          4.1210     1.1320     1.0590 c6         1 6QP       0.143800
     18 N13          3.0430     0.3430     0.4570 nh         1 6QP      -0.558900
     19 S14          3.4530    -0.4500    -0.9810 sy         1 6QP       1.267200
     20 C16          1.2170    -1.6360    -2.0030 ca         1 6QP       0.003000
     21 C18          0.3160    -3.6550    -1.1210 ca         1 6QP       0.189900
     22 F19         -0.6240    -4.6000    -1.1470 f          1 6QP      -0.132900
     23 O22          4.7540    -1.0500    -0.7420 o          1 6QP      -0.602300
     24 O23          3.2790     0.4260    -2.1310 o          1 6QP      -0.602300
     25 C25         -0.5040     2.5850     0.3100 ca         1 6QP      -0.102000
     26 C27         -4.2220    -1.1570    -0.6010 ca         1 6QP       0.074400
     27 CL          -3.2470    -1.0260    -2.0230 cl         1 6QP      -0.088400
     28 C29         -5.1820    -2.1530    -0.5230 ca         1 6QP      -0.141000
     29 C30         -5.9660    -2.2410     0.6180 ca         1 6QP      -0.077000
     30 C31         -5.8030    -1.3500     1.6690 ca         1 6QP      -0.173000
     31 C32         -4.8400    -0.3700     1.5480 ca         1 6QP       0.184900
     32 F33         -4.6590     0.5000     2.5480 f          1 6QP      -0.124900
     33 H1           4.8730     3.5740     2.0620 h1         1 6QP       0.029700
     34 H2           6.2060     2.7790     1.2200 h1         1 6QP       0.029700
     35 H3          -0.5580    -2.5820    -2.7600 ha         1 6QP       0.158000
     36 H4           1.3530    -4.5750     0.5180 ha         1 6QP       0.158000
     37 H5           3.0890    -2.8200     0.5860 ha         1 6QP       0.164000
     38 H6           0.7750     4.2870     0.1370 ha         1 6QP       0.157000
     39 H7          -1.6490    -0.5100     0.7820 hn         1 6QP       0.323500
     40 H8           0.5730    -0.5980     0.6930 ha         1 6QP       0.141000
     41 H9           4.7010     2.2580    -0.6750 h1         1 6QP       0.083700
     42 H10          6.0950     5.0780     0.7900 ho         1 6QP       0.408000
     43 H11          5.0490     0.5650     1.0620 h1         1 6QP       0.090200
     44 H12          3.8410     1.2930     2.1030 h1         1 6QP       0.090200
     45 H13          1.1690    -0.8150    -2.7040 ha         1 6QP       0.164000
     46 H14         -1.3940     3.1910     0.2700 ha         1 6QP       0.172000
     47 H15         -5.3190    -2.8460    -1.3410 ha         1 6QP       0.158000
     48 H16         -6.7170    -3.0160     0.6880 ha         1 6QP       0.145000
     49 H17         -6.4100    -1.4150     2.5610 ha         1 6QP       0.161000
     50 N03         -1.7680     0.4700     0.5690 ns         1 6QP      -0.457100
@<TRIPOS>BOND
     1     1    15 1   
     2     1    16 1   
     3     1    33 1   
     4     1    34 1   
     5     2     5 ar  
     6     2    19 1   
     7     2    20 ar  
     8     3    20 ar  
     9     3    21 ar  
    10     3    35 1   
    11     4     5 ar  
    12     4    21 ar  
    13     4    36 1   
    14     5    37 1   
    15     6    13 ar  
    16     6    25 ar  
    17     6    38 1   
    18     7     9 1   
    19     7    26 ar  
    20     7    31 ar  
    21     8     9 2   
    22     9    50 1   
    23    10    11 ar  
    24    10    25 ar  
    25    10    50 1   
    26    11    12 ar  
    27    11    40 1   
    28    12    13 ar  
    29    12    18 1   
    30    13    14 1   
    31    14    15 1   
    32    15    17 1   
    33    15    41 1   
    34    16    42 1   
    35    17    18 1   
    36    17    43 1   
    37    17    44 1   
    38    18    19 1   
    39    19    23 2   
    40    19    24 2   
    41    20    45 1   
    42    21    22 1   
    43    25    46 1   
    44    26    27 1   
    45    26    28 ar  
    46    28    29 ar  
    47    28    47 1   
    48    29    30 ar  
    49    29    48 1   
    50    30    31 ar  
    51    30    49 1   
    52    31    32 1   
    53    39    50 1   
@<TRIPOS>SUBSTRUCTURE
     1 6QP         1 TEMP              0 ****  ****    0 ROOT
