@<TRIPOS>MOLECULE
6QR
   44    46     1     0     0
SMALL
No Charge or Current Charge


@<TRIPOS>ATOM
      1 C10         -2.1270    -0.4850    -1.5920 cc         1 6QR      -0.142100
      2 C11         -4.2830    -0.9590    -0.9410 ca         1 6QR      -0.057200
      3 C13         -4.5340     0.2830     1.1290 ca         1 6QR      -0.045000
      4 C14         -5.8560    -0.2030     1.2310 ca         1 6QR      -0.153000
      5 C15         -6.3810    -1.0680     0.2390 ca         1 6QR      -0.101000
      6 C16         -5.5900    -1.4570    -0.8650 ca         1 6QR      -0.138000
      7 C18          0.4460    -1.1580     1.3180 c3         1 6QR      -0.090100
      8 C1           3.5820    -1.2560     1.7060 c          1 6QR       0.611900
      9 O1           3.3460    -2.1830     2.4790 o          1 6QR      -0.552100
     10 N1           2.5550     1.0250     0.2180 n2         1 6QR      -0.584900
     11 S1          -1.3090     1.2010     0.5070 ss         1 6QR      -0.186600
     12 C12         -3.7830    -0.1250     0.0190 ca         1 6QR      -0.070800
     13 C17          0.8160    -0.6110    -0.0910 c5         1 6QR      -0.075700
     14 C2           3.3970    -1.3450     0.1810 c3         1 6QR      -0.156700
     15 O2           5.7400    -2.0170     0.1490 oh         1 6QR      -0.668000
     16 N2          -3.3140    -1.1860    -1.9100 na         1 6QR      -0.228700
     17 C3           4.7850    -1.1710    -0.4990 c3         1 6QR       0.171300
     18 C4           4.7990    -1.5250    -2.0040 c3         1 6QR      -0.123100
     19 C5           2.3330    -0.3270    -0.3380 c5         1 6QR       0.090500
     20 C6           1.4240     1.6700     0.0780 ce         1 6QR       0.371300
     21 C7           1.3200     3.1990    -0.1410 c          1 6QR       0.635700
     22 C8           0.2620     0.8170    -0.4540 c5         1 6QR      -0.036000
     23 C9          -2.4380     0.1610    -0.4020 cd         1 6QR      -0.048600
     24 H1          -1.2410    -0.5150    -2.2170 h4         1 6QR       0.217000
     25 H2          -4.1140     0.9470     1.8810 ha         1 6QR       0.132000
     26 H3          -6.4740     0.0890     2.0770 ha         1 6QR       0.104000
     27 H4          -7.4010    -1.4370     0.3290 ha         1 6QR       0.098000
     28 H5          -5.9850    -2.1210    -1.6310 ha         1 6QR       0.101000
     29 H8           0.9060    -2.1370     1.4910 hc         1 6QR       0.042700
     30 H9           3.9720    -0.2850     2.0880 h4         1 6QR       0.021200
     31 H12          0.4550    -1.3650    -0.8000 hc         1 6QR       0.040700
     32 H13          3.0450    -2.3590    -0.0420 hc         1 6QR       0.061700
     33 H14          6.5840    -1.9290    -0.3450 ho         1 6QR       0.434000
     34 H15         -3.4450    -1.7720    -2.7290 hn         1 6QR       0.338000
     35 H16          5.0950    -0.1210    -0.3930 h1         1 6QR       0.064700
     36 H18          4.4170    -2.5390    -2.1720 hc         1 6QR       0.034700
     37 H19          4.1880    -0.8250    -2.5850 hc         1 6QR       0.034700
     38 H20          5.8190    -1.4730    -2.4040 hc         1 6QR       0.034700
     39 H21          2.4610    -0.2600    -1.4260 h1         1 6QR       0.039700
     40 H23          0.1360     0.9830    -1.5310 h1         1 6QR       0.065700
     41 H6           0.7650    -0.4800     2.1190 hc         1 6QR       0.042700
     42 O3           2.2860     3.9040     0.1430 o          1 6QR      -0.686500
     43 O4           0.3000     3.6900    -0.6170 o          1 6QR      -0.686500
     44 H7          -0.6330    -1.3200     1.4190 hc         1 6QR       0.042700
@<TRIPOS>BOND
     1     1    16 1   
     2     1    23 2   
     3     1    24 1   
     4     2     6 ar  
     5     2    12 ar  
     6     2    16 1   
     7     3     4 ar  
     8     3    12 ar  
     9     3    25 1   
    10     4     5 ar  
    11     4    26 1   
    12     5     6 ar  
    13     5    27 1   
    14     6    28 1   
    15     7    13 1   
    16     7    29 1   
    17     7    41 1   
    18     7    44 1   
    19     8     9 2   
    20     8    14 1   
    21     8    30 1   
    22    10    19 1   
    23    10    20 2   
    24    11    22 1   
    25    11    23 1   
    26    12    23 1   
    27    13    19 1   
    28    13    22 1   
    29    13    31 1   
    30    14    17 1   
    31    14    19 1   
    32    14    32 1   
    33    15    17 1   
    34    15    33 1   
    35    16    34 1   
    36    17    18 1   
    37    17    35 1   
    38    18    36 1   
    39    18    37 1   
    40    18    38 1   
    41    19    39 1   
    42    20    21 1   
    43    20    22 1   
    44    21    42 1   
    45    21    43 1   
    46    22    40 1   
@<TRIPOS>SUBSTRUCTURE
     1 6QR         1 TEMP              0 ****  ****    0 ROOT
