@<TRIPOS>MOLECULE
6QR
   44    46     1     0     0
SMALL
bcc


@<TRIPOS>ATOM
      1 C10         -2.5440     0.2400    -2.2220 cc         1 6QR      -0.092100
      2 C11         -4.0510    -0.9200    -1.0610 ca         1 6QR      -0.057200
      3 C13         -3.6920    -0.1270     1.2020 ca         1 6QR      -0.063000
      4 C14         -4.7070    -0.9680     1.6140 ca         1 6QR      -0.171000
      5 C15         -5.3930    -1.7810     0.6950 ca         1 6QR      -0.119000
      6 C16         -5.0760    -1.7710    -0.6490 ca         1 6QR      -0.156000
      7 C18          0.0840    -0.7190     0.9980 c3         1 6QR      -0.090100
      8 C1           3.0870    -1.1270     1.7450 c          1 6QR       0.611900
      9 O1           2.7710    -1.9160     2.6000 o          1 6QR      -0.552100
     10 N1           2.5230     1.0640     0.0090 n2         1 6QR      -0.584900
     11 S1          -1.2820     1.8500    -0.3050 ss         1 6QR      -0.138700
     12 C12         -3.3510    -0.0960    -0.1540 ca         1 6QR      -0.070800
     13 C17          0.6160    -0.3250    -0.3690 c5         1 6QR      -0.075700
     14 C2           2.9670    -1.3670     0.2600 c3         1 6QR      -0.156700
     15 O2           5.1760    -2.1350     0.6320 oh         1 6QR      -0.605800
     16 N2          -3.5270    -0.6980    -2.3030 na         1 6QR      -0.178400
     17 C3           4.4000    -1.4090    -0.3030 c3         1 6QR       0.148100
     18 C4           4.4630    -2.0530    -1.6790 c3         1 6QR      -0.123100
     19 C5           2.1570    -0.2730    -0.4490 c5         1 6QR       0.090500
     20 C6           1.5250     1.8310    -0.1430 ce         1 6QR       0.371300
     21 C7           1.5860     3.3210     0.1580 c          1 6QR       0.846300
     22 C8           0.3310     1.1340    -0.7610 c5         1 6QR      -0.083900
     23 C9          -2.3850     0.6340    -0.9200 cd         1 6QR      -0.048600
     24 H1          -2.0110     0.5590    -3.1040 h4         1 6QR       0.167000
     25 H2          -3.1650     0.4990     1.9110 ha         1 6QR       0.150000
     26 H3          -4.9830    -1.0040     2.6600 ha         1 6QR       0.122000
     27 H4          -6.1860    -2.4280     1.0490 ha         1 6QR       0.116000
     28 H5          -5.6040    -2.4000    -1.3540 ha         1 6QR       0.119000
     29 H8           0.3840    -1.7360     1.2490 hc         1 6QR       0.042700
     30 H9           3.5170    -0.1460     2.0140 h4         1 6QR       0.021200
     31 H12          0.2180    -1.0100    -1.1190 hc         1 6QR       0.040700
     32 H13          2.4900    -2.3390     0.0940 hc         1 6QR       0.061700
     33 H14          6.0980    -2.0910     0.3610 ho         1 6QR       0.395000
     34 H15         -3.8130    -1.1580    -3.1510 hn         1 6QR       0.287700
     35 H16          4.7640    -0.3750    -0.3750 h1         1 6QR       0.064700
     36 H18          4.1080    -3.0840    -1.6390 hc         1 6QR       0.034700
     37 H19          3.8650    -1.5150    -2.4140 hc         1 6QR       0.034700
     38 H20          5.4900    -2.0580    -2.0480 hc         1 6QR       0.034700
     39 H21          2.4200    -0.3250    -1.5130 h1         1 6QR       0.039700
     40 H23          0.4290     1.2280    -1.8490 h1         1 6QR       0.065700
     41 H6           0.4320    -0.0560     1.7930 hc         1 6QR       0.042700
     42 O3           2.4620     3.7020     0.9480 o          1 6QR      -0.791800
     43 O4           0.7350     4.0000    -0.4450 o          1 6QR      -0.791800
     44 H7          -1.0030    -0.6970     1.0100 hc         1 6QR       0.042700
@<TRIPOS>BOND
     1     1    16 1   
     2     1    23 2   
     3     1    24 1   
     4     2     6 ar  
     5     2    12 ar  
     6     2    16 1   
     7     3     4 ar  
     8     3    12 ar  
     9     3    25 1   
    10     4     5 ar  
    11     4    26 1   
    12     5     6 ar  
    13     5    27 1   
    14     6    28 1   
    15     7    13 1   
    16     7    29 1   
    17     7    41 1   
    18     7    44 1   
    19     8     9 2   
    20     8    14 1   
    21     8    30 1   
    22    10    19 1   
    23    10    20 2   
    24    11    22 1   
    25    11    23 1   
    26    12    23 1   
    27    13    19 1   
    28    13    22 1   
    29    13    31 1   
    30    14    17 1   
    31    14    19 1   
    32    14    32 1   
    33    15    17 1   
    34    15    33 1   
    35    16    34 1   
    36    17    18 1   
    37    17    35 1   
    38    18    36 1   
    39    18    37 1   
    40    18    38 1   
    41    19    39 1   
    42    20    21 1   
    43    20    22 1   
    44    21    42 1   
    45    21    43 1   
    46    22    40 1   
@<TRIPOS>SUBSTRUCTURE
     1 6QR         1 TEMP              0 ****  ****    0 ROOT
