@<TRIPOS>MOLECULE
6QS
   68    73     1     0     0
SMALL
No Charge or Current Charge


@<TRIPOS>ATOM
      1 O01          2.9170    -2.4170    -2.1150 o          1 6QS      -0.530100
      2 C02          3.3420    -2.0690    -1.0200 c          1 6QS       0.591300
      3 C03          4.0640    -3.0350    -0.0860 c6         1 6QS      -0.180400
      4 C04          5.3940    -2.3740     0.3540 c6         1 6QS      -0.062400
      5 C05          5.1620    -0.9820     1.0110 c6         1 6QS      -0.052200
      6 C06          3.9440    -0.2230     0.4800 c2         1 6QS       0.159800
      7 C07          3.0830    -0.7340    -0.4210 ce         1 6QS      -0.273400
      8 C08          1.7710    -0.0350    -0.7850 c6         1 6QS       0.125000
      9 C09          1.7060     1.4190    -0.2700 ce         1 6QS      -0.249400
     10 C10          0.5530     2.2150    -0.8330 c          1 6QS       0.619300
     11 O11          0.4640     3.4860    -0.3350 os         1 6QS      -0.445100
     12 C12         -0.6170     4.3250    -0.7850 c3         1 6QS       0.155600
     13 C13         -0.4980     5.7050    -0.0700 c5         1 6QS       0.161300
     14 O14         -0.7880     5.5980     1.3420 os         1 6QS      -0.457000
     15 C15         -2.2230     5.5450     1.5070 c5         1 6QS       0.152600
     16 C16         -2.8140     6.2760     0.2630 c5         1 6QS      -0.115400
     17 C17         -1.5480     6.7550    -0.5070 c5         1 6QS      -0.108400
     18 O18         -0.2300     1.7750    -1.6650 o          1 6QS      -0.497000
     19 C19          2.6270     1.8790     0.6240 c2         1 6QS       0.189800
     20 C20          2.7220     3.2430     1.2920 c3         1 6QS      -0.064900
     21 N21          3.6600     1.0260     1.0070 nu         1 6QS      -0.686000
     22 C22          0.6030    -0.8550    -0.2200 ca         1 6QS      -0.110300
     23 C23          0.4490    -0.9930     1.1870 ca         1 6QS      -0.072000
     24 C24         -0.6110    -1.7470     1.7310 ca         1 6QS      -0.155000
     25 C25         -0.3140    -1.4810    -1.0990 ca         1 6QS      -0.011000
     26 C26         -1.3700    -2.2330    -0.5500 cp         1 6QS      -0.089000
     27 C27         -1.4960    -2.3520     0.8320 ca         1 6QS       0.000800
     28 N28         -2.6340    -3.1510     1.0300 na         1 6QS      -0.100600
     29 C29         -3.1580    -3.5040     2.3600 c3         1 6QS       0.085600
     30 C30         -4.1610    -2.4690     2.9000 c3         1 6QS      -0.117100
     31 C31         -3.2450    -3.5390    -0.1740 ca         1 6QS      -0.000200
     32 C32         -2.4610    -2.9750    -1.1780 cp         1 6QS      -0.079000
     33 C33         -2.8000    -3.1700    -2.5310 ca         1 6QS      -0.048000
     34 C34         -3.9430    -3.9450    -2.8290 ca         1 6QS      -0.151000
     35 C35         -4.7300    -4.5090    -1.7930 ca         1 6QS      -0.085000
     36 C36         -4.3850    -4.3090    -0.4390 ca         1 6QS      -0.147000
     37 H1           3.4540    -3.1340     0.8220 hc         1 6QS       0.070700
     38 H2           4.2000    -4.0160    -0.5590 hc         1 6QS       0.070700
     39 H3           5.9400    -3.0310     1.0450 hc         1 6QS       0.050700
     40 H4           6.0380    -2.2520    -0.5280 hc         1 6QS       0.050700
     41 H5           5.0270    -1.1260     2.0920 hc         1 6QS       0.056200
     42 H6           6.0650    -0.3670     0.8980 hc         1 6QS       0.056200
     43 H7          -0.5520     4.4840    -1.8700 h1         1 6QS       0.053200
     44 H8          -1.5890     3.8630    -0.5670 h1         1 6QS       0.053200
     45 H9           0.5250     6.0810    -0.2070 h1         1 6QS       0.065700
     46 H10         -2.5450     4.4950     1.5500 h1         1 6QS       0.045200
     47 H11         -3.4180     5.5880    -0.3410 hc         1 6QS       0.058200
     48 H12         -1.2460     7.7600    -0.1890 hc         1 6QS       0.058200
     49 H13         -1.6960     6.7870    -1.5930 hc         1 6QS       0.058200
     50 H14          1.8170     3.4590     1.8720 hc         1 6QS       0.063367
     51 H15          3.5680     3.3200     1.9840 hc         1 6QS       0.063367
     52 H16          2.8480     4.0370     0.5460 hc         1 6QS       0.063367
     53 H17          1.1580    -0.5120     1.8570 ha         1 6QS       0.103000
     54 H18         -0.7310    -1.8510     2.8060 ha         1 6QS       0.110000
     55 H19         -0.2120    -1.3860    -2.1770 ha         1 6QS       0.129000
     56 H20         -3.6440    -4.4860     2.3020 h1         1 6QS       0.052700
     57 H21         -2.3190    -3.5970     3.0600 h1         1 6QS       0.052700
     58 H22         -4.5250    -2.7700     3.8890 hc         1 6QS       0.044700
     59 H23         -3.6880    -1.4840     2.9910 hc         1 6QS       0.044700
     60 H24         -5.0230    -2.3790     2.2270 hc         1 6QS       0.044700
     61 H25         -2.1980    -2.7340    -3.3250 ha         1 6QS       0.119000
     62 H26         -4.2240    -4.1090    -3.8670 ha         1 6QS       0.110000
     63 H27         -5.6080    -5.1010    -2.0430 ha         1 6QS       0.106000
     64 H28         -4.9840    -4.7350     0.3620 ha         1 6QS       0.112000
     65 H29          1.7040    -0.0070    -1.8830 hc         1 6QS       0.086700
     66 H30         -2.4960     6.0340     2.4520 h1         1 6QS       0.045200
     67 H31         -3.4670     7.1110     0.5440 hc         1 6QS       0.058200
     68 H32          4.3150     1.3840     1.7050 hn         1 6QS       0.494000
@<TRIPOS>BOND
     1     1     2 2   
     2     2     3 1   
     3     2     7 1   
     4     3     4 1   
     5     3    37 1   
     6     3    38 1   
     7     4     5 1   
     8     4    39 1   
     9     4    40 1   
    10     5     6 1   
    11     5    41 1   
    12     5    42 1   
    13     6     7 2   
    14     6    21 1   
    15     7     8 1   
    16     8     9 1   
    17     8    22 1   
    18     8    65 1   
    19     9    10 1   
    20     9    19 2   
    21    10    11 1   
    22    10    18 2   
    23    11    12 1   
    24    12    13 1   
    25    12    43 1   
    26    12    44 1   
    27    13    14 1   
    28    13    17 1   
    29    13    45 1   
    30    14    15 1   
    31    15    16 1   
    32    15    46 1   
    33    15    66 1   
    34    16    17 1   
    35    16    47 1   
    36    16    67 1   
    37    17    48 1   
    38    17    49 1   
    39    19    20 1   
    40    19    21 1   
    41    20    50 1   
    42    20    51 1   
    43    20    52 1   
    44    21    68 1   
    45    22    23 ar  
    46    22    25 ar  
    47    23    24 ar  
    48    23    53 1   
    49    24    27 ar  
    50    24    54 1   
    51    25    26 ar  
    52    25    55 1   
    53    26    27 ar  
    54    26    32 1   
    55    27    28 1   
    56    28    29 1   
    57    28    31 1   
    58    29    30 1   
    59    29    56 1   
    60    29    57 1   
    61    30    58 1   
    62    30    59 1   
    63    30    60 1   
    64    31    32 ar  
    65    31    36 ar  
    66    32    33 ar  
    67    33    34 ar  
    68    33    61 1   
    69    34    35 ar  
    70    34    62 1   
    71    35    36 ar  
    72    35    63 1   
    73    36    64 1   
@<TRIPOS>SUBSTRUCTURE
     1 6QS         1 TEMP              0 ****  ****    0 ROOT
