@<TRIPOS>MOLECULE
6QS
   68    73     1     0     0
SMALL
bcc


@<TRIPOS>ATOM
      1 O01          2.7430    -2.3440    -1.9700 o          1 6QS      -0.530100
      2 C02          3.3790    -1.9020    -1.0240 c          1 6QS       0.591300
      3 C03          4.6480    -2.5820    -0.5600 c6         1 6QS      -0.180400
      4 C04          5.6130    -1.6350     0.1350 c6         1 6QS      -0.062400
      5 C05          4.9100    -0.8790     1.2500 c6         1 6QS      -0.052200
      6 C06          3.6460    -0.2550     0.7530 c2         1 6QS       0.159800
      7 C07          2.9240    -0.7370    -0.2850 ce         1 6QS      -0.273400
      8 C08          1.5910    -0.1310    -0.6450 c6         1 6QS       0.125000
      9 C09          1.4790     1.2830    -0.1070 ce         1 6QS      -0.249400
     10 C10          0.4880     2.1110    -0.7940 c          1 6QS       0.668300
     11 O11          0.4680     3.3850    -0.4130 os         1 6QS      -0.421900
     12 C12         -0.4930     4.2540    -1.0040 c3         1 6QS       0.132400
     13 C13         -0.3100     5.6230    -0.3830 c5         1 6QS       0.138100
     14 O14         -0.4900     5.5500     1.0240 os         1 6QS      -0.410600
     15 C15         -1.5940     6.3500     1.4270 c5         1 6QS       0.129400
     16 C16         -2.4330     6.5590     0.1790 c5         1 6QS      -0.115400
     17 C17         -1.3580     6.6130    -0.9010 c5         1 6QS      -0.108400
     18 O18         -0.2420     1.6860    -1.6650 o          1 6QS      -0.546000
     19 C19          2.2330     1.6910     0.9460 c2         1 6QS       0.189800
     20 C20          2.1660     2.9870     1.6980 c3         1 6QS      -0.064900
     21 N21          3.2230     0.8590     1.4130 nu         1 6QS      -0.630800
     22 C22          0.4520    -1.0060    -0.1500 ca         1 6QS      -0.110300
     23 C23          0.3260    -1.2860     1.2200 ca         1 6QS      -0.090000
     24 C24         -0.6880    -2.0810     1.7240 ca         1 6QS      -0.173000
     25 C25         -0.4690    -1.5400    -1.0350 ca         1 6QS      -0.029000
     26 C26         -1.5030    -2.3410    -0.5580 cp         1 6QS      -0.089000
     27 C27         -1.6030    -2.6120     0.8190 ca         1 6QS       0.000800
     28 N28         -2.6840    -3.4310     1.0470 na         1 6QS      -0.071300
     29 C29         -3.1440    -3.8580     2.3480 c3         1 6QS       0.056300
     30 C30         -4.0010    -2.8170     3.0500 c3         1 6QS      -0.117100
     31 C31         -3.3100    -3.6750    -0.1510 ca         1 6QS      -0.000200
     32 C32         -2.6040    -3.0250    -1.1850 cp         1 6QS      -0.079000
     33 C33         -3.0440    -3.1390    -2.5020 ca         1 6QS      -0.066000
     34 C34         -4.1770    -3.8880    -2.7680 ca         1 6QS      -0.169000
     35 C35         -4.8710    -4.5230    -1.7310 ca         1 6QS      -0.103000
     36 C36         -4.4530    -4.4270    -0.4140 ca         1 6QS      -0.165000
     37 H1           4.3510    -3.3780     0.1330 hc         1 6QS       0.070700
     38 H2           5.1170    -3.0740    -1.4130 hc         1 6QS       0.070700
     39 H3           6.4580    -2.1910     0.5400 hc         1 6QS       0.050700
     40 H4           6.0200    -0.9220    -0.5870 hc         1 6QS       0.050700
     41 H5           4.6630    -1.5620     2.0710 hc         1 6QS       0.056200
     42 H6           5.5640    -0.1120     1.6710 hc         1 6QS       0.056200
     43 H7          -0.3340     4.3210    -2.0840 h1         1 6QS       0.053200
     44 H8          -1.5070     3.8800    -0.8320 h1         1 6QS       0.053200
     45 H9           0.7060     5.9740    -0.5970 h1         1 6QS       0.065700
     46 H10         -2.1300     5.8350     2.2270 h1         1 6QS       0.045200
     47 H11         -3.1110     5.7180     0.0190 hc         1 6QS       0.058200
     48 H12         -0.9310     7.6150    -0.9650 hc         1 6QS       0.058200
     49 H13         -1.7290     6.3530    -1.8930 hc         1 6QS       0.058200
     50 H14          1.1490     3.3120     1.8830 hc         1 6QS       0.063367
     51 H15          2.6700     2.8830     2.6590 hc         1 6QS       0.063367
     52 H16          2.6700     3.7810     1.1470 hc         1 6QS       0.063367
     53 H17          1.0400    -0.8660     1.9180 ha         1 6QS       0.121000
     54 H18         -0.7590    -2.2750     2.7870 ha         1 6QS       0.128000
     55 H19         -0.3830    -1.3260    -2.0940 ha         1 6QS       0.147000
     56 H20         -3.7000    -4.7870     2.2230 h1         1 6QS       0.052700
     57 H21         -2.2720    -4.1070     2.9560 h1         1 6QS       0.052700
     58 H22         -4.3150    -3.1890     4.0250 hc         1 6QS       0.044700
     59 H23         -3.4510    -1.8890     3.2060 hc         1 6QS       0.044700
     60 H24         -4.8970    -2.5870     2.4730 hc         1 6QS       0.044700
     61 H25         -2.5100    -2.6460    -3.3050 ha         1 6QS       0.137000
     62 H26         -4.5330    -3.9840    -3.7850 ha         1 6QS       0.128000
     63 H27         -5.7570    -5.1000    -1.9610 ha         1 6QS       0.124000
     64 H28         -5.0020    -4.9230     0.3760 ha         1 6QS       0.130000
     65 H29          1.5140    -0.0960    -1.7350 hc         1 6QS       0.086700
     66 H30         -1.2440     7.3120     1.8220 h1         1 6QS       0.045200
     67 H31         -3.0340     7.4660     0.2280 hc         1 6QS       0.058200
     68 H32          3.7900     1.1970     2.1750 hn         1 6QS       0.438800
@<TRIPOS>BOND
     1     1     2 2   
     2     2     3 1   
     3     2     7 1   
     4     3     4 1   
     5     3    37 1   
     6     3    38 1   
     7     4     5 1   
     8     4    39 1   
     9     4    40 1   
    10     5     6 1   
    11     5    41 1   
    12     5    42 1   
    13     6     7 2   
    14     6    21 1   
    15     7     8 1   
    16     8     9 1   
    17     8    22 1   
    18     8    65 1   
    19     9    10 1   
    20     9    19 2   
    21    10    11 1   
    22    10    18 2   
    23    11    12 1   
    24    12    13 1   
    25    12    43 1   
    26    12    44 1   
    27    13    14 1   
    28    13    17 1   
    29    13    45 1   
    30    14    15 1   
    31    15    16 1   
    32    15    46 1   
    33    15    66 1   
    34    16    17 1   
    35    16    47 1   
    36    16    67 1   
    37    17    48 1   
    38    17    49 1   
    39    19    20 1   
    40    19    21 1   
    41    20    50 1   
    42    20    51 1   
    43    20    52 1   
    44    21    68 1   
    45    22    23 ar  
    46    22    25 ar  
    47    23    24 ar  
    48    23    53 1   
    49    24    27 ar  
    50    24    54 1   
    51    25    26 ar  
    52    25    55 1   
    53    26    27 ar  
    54    26    32 1   
    55    27    28 1   
    56    28    29 1   
    57    28    31 1   
    58    29    30 1   
    59    29    56 1   
    60    29    57 1   
    61    30    58 1   
    62    30    59 1   
    63    30    60 1   
    64    31    32 ar  
    65    31    36 ar  
    66    32    33 ar  
    67    33    34 ar  
    68    33    61 1   
    69    34    35 ar  
    70    34    62 1   
    71    35    36 ar  
    72    35    63 1   
    73    36    64 1   
@<TRIPOS>SUBSTRUCTURE
     1 6QS         1 TEMP              0 ****  ****    0 ROOT
