@<TRIPOS>MOLECULE
6QT
   31    33     1     0     0
SMALL
bcc


@<TRIPOS>ATOM
      1 CAI          0.2060     1.4000    -0.7430 c6         1 6QT      -0.214400
      2 CAH         -1.2570     1.7160    -0.5760 c          1 6QT       0.591700
      3 OAS         -1.7130     2.8180    -0.7990 o          1 6QT      -0.512100
      4 CAE         -2.0990     0.5740    -0.1780 ca         1 6QT      -0.223600
      5 CAD         -3.4850     0.7190    -0.0860 ca         1 6QT      -0.076000
      6 CAC         -4.2880    -0.3640     0.2160 ca         1 6QT       0.094100
      7 OAQ         -5.6230    -0.1750     0.2890 oh         1 6QT      -0.492100
      8 CAB         -3.6920    -1.6120     0.4280 ca         1 6QT      -0.162000
      9 CAA         -2.3220    -1.7650     0.3500 ca         1 6QT      -0.133000
     10 CAF         -1.5120    -0.6740     0.0490 ca         1 6QT       0.140100
     11 OAG         -0.1800    -0.8810    -0.0200 os         1 6QT      -0.311900
     12 CAJ          0.6400     0.2680     0.1760 c6         1 6QT       0.204400
     13 CAM          2.0670    -0.1380    -0.0640 ca         1 6QT      -0.051300
     14 CAN          3.0240     0.1340     0.9040 ca         1 6QT      -0.209000
     15 CAO          4.3610    -0.1920     0.6850 ca         1 6QT       0.139100
     16 OAR          5.3230     0.0600     1.5940 oh         1 6QT      -0.493100
     17 CAP          4.7340    -0.8050    -0.5080 ca         1 6QT      -0.153000
     18 CAK          3.7700    -1.0790    -1.4660 ca         1 6QT      -0.096000
     19 CAL          2.4390    -0.7490    -1.2580 ca         1 6QT      -0.137000
     20 H1           0.3710     1.1240    -1.7910 hc         1 6QT       0.087200
     21 H2           0.8050     2.2900    -0.5460 hc         1 6QT       0.087200
     22 H3          -3.9310     1.6900    -0.2650 ha         1 6QT       0.167000
     23 H4          -6.0680    -0.9980     0.5200 ho         1 6QT       0.426000
     24 H5          -4.3050    -2.4740     0.6650 ha         1 6QT       0.135000
     25 H6          -1.8750    -2.7340     0.5290 ha         1 6QT       0.151000
     26 H7           0.5260     0.5990     1.2170 h1         1 6QT       0.054700
     27 H8           2.7260     0.6030     1.8360 ha         1 6QT       0.132000
     28 H9           4.9510     0.4960     2.3690 ho         1 6QT       0.427000
     29 H10          5.7720    -1.0610    -0.6810 ha         1 6QT       0.149000
     30 H11          4.0670    -1.5560    -2.3910 ha         1 6QT       0.136000
     31 H12          1.7030    -0.9640    -2.0220 ha         1 6QT       0.143000
@<TRIPOS>BOND
     1     1     2 1   
     2     1    12 1   
     3     1    20 1   
     4     1    21 1   
     5     2     3 2   
     6     2     4 1   
     7     4     5 ar  
     8     4    10 ar  
     9     5     6 ar  
    10     5    22 1   
    11     6     7 1   
    12     6     8 ar  
    13     7    23 1   
    14     8     9 ar  
    15     8    24 1   
    16     9    10 ar  
    17     9    25 1   
    18    10    11 1   
    19    11    12 1   
    20    12    13 1   
    21    12    26 1   
    22    13    14 ar  
    23    13    19 ar  
    24    14    15 ar  
    25    14    27 1   
    26    15    16 1   
    27    15    17 ar  
    28    16    28 1   
    29    17    18 ar  
    30    17    29 1   
    31    18    19 ar  
    32    18    30 1   
    33    19    31 1   
@<TRIPOS>SUBSTRUCTURE
     1 6QT         1 TEMP              0 ****  ****    0 ROOT
