@<TRIPOS>MOLECULE
6QT
   31    33     1     0     0
SMALL
No Charge or Current Charge


@<TRIPOS>ATOM
      1 CAI          0.1980     1.4370    -0.7520 c6         1 6QT      -0.214400
      2 CAH         -1.2540     1.7690    -0.4550 c          1 6QT       0.591700
      3 OAS         -1.6550     2.9260    -0.4280 o          1 6QT      -0.512100
      4 CAE         -2.1380     0.6000    -0.1460 ca         1 6QT      -0.223600
      5 CAD         -3.5440     0.7360    -0.0990 ca         1 6QT      -0.058000
      6 CAC         -4.3550    -0.3820     0.1620 ca         1 6QT       0.094100
      7 OAQ         -5.7120    -0.2410     0.2010 oh         1 6QT      -0.531100
      8 CAB         -3.7700    -1.6420     0.3760 ca         1 6QT      -0.144000
      9 CAA         -2.3700    -1.7790     0.3370 ca         1 6QT      -0.115000
     10 CAF         -1.5570    -0.6620     0.0900 ca         1 6QT       0.140100
     11 OAG         -0.1890    -0.8270     0.0730 os         1 6QT      -0.335100
     12 CAJ          0.6660     0.3280     0.2000 c6         1 6QT       0.227600
     13 CAM          2.1180    -0.0970    -0.0550 ca         1 6QT      -0.051300
     14 CAN          3.1200     0.1990     0.8920 ca         1 6QT      -0.191000
     15 CAO          4.4510    -0.1840     0.6580 ca         1 6QT       0.139100
     16 OAR          5.4170     0.1040     1.5750 oh         1 6QT      -0.532100
     17 CAP          4.7920    -0.8660    -0.5200 ca         1 6QT      -0.135000
     18 CAK          3.8000    -1.1660    -1.4690 ca         1 6QT      -0.078000
     19 CAL          2.4680    -0.7830    -1.2370 ca         1 6QT      -0.119000
     20 H1           0.2260     1.0160    -1.7640 hc         1 6QT       0.087200
     21 H2           0.8220     2.3390    -0.7150 hc         1 6QT       0.087200
     22 H3          -4.0110     1.7030    -0.2740 ha         1 6QT       0.149000
     23 H4          -6.1150    -1.1150     0.3920 ho         1 6QT       0.465000
     24 H5          -4.3890    -2.5140     0.5740 ha         1 6QT       0.117000
     25 H6          -1.9130    -2.7510     0.5080 ha         1 6QT       0.133000
     26 H7           0.5790     0.6950     1.2340 h1         1 6QT       0.054700
     27 H8           2.8590     0.7290     1.8050 ha         1 6QT       0.114000
     28 H9           5.0010     0.5770     2.3260 ho         1 6QT       0.466000
     29 H10          5.8230    -1.1610    -0.6980 ha         1 6QT       0.131000
     30 H11          4.0640    -1.6950    -2.3830 ha         1 6QT       0.118000
     31 H12          1.7060    -1.0220    -1.9760 ha         1 6QT       0.125000
@<TRIPOS>BOND
     1     1     2 1   
     2     1    12 1   
     3     1    20 1   
     4     1    21 1   
     5     2     3 2   
     6     2     4 1   
     7     4     5 ar  
     8     4    10 ar  
     9     5     6 ar  
    10     5    22 1   
    11     6     7 1   
    12     6     8 ar  
    13     7    23 1   
    14     8     9 ar  
    15     8    24 1   
    16     9    10 ar  
    17     9    25 1   
    18    10    11 1   
    19    11    12 1   
    20    12    13 1   
    21    12    26 1   
    22    13    14 ar  
    23    13    19 ar  
    24    14    15 ar  
    25    14    27 1   
    26    15    16 1   
    27    15    17 ar  
    28    16    28 1   
    29    17    18 ar  
    30    17    29 1   
    31    18    19 ar  
    32    18    30 1   
    33    19    31 1   
@<TRIPOS>SUBSTRUCTURE
     1 6QT         1 TEMP              0 ****  ****    0 ROOT
