@<TRIPOS>MOLECULE
6QU
   36    38     1     0     0
SMALL
No Charge or Current Charge


@<TRIPOS>ATOM
      1 C1           4.5310     2.0670     0.6530 ca         1 6QU      -0.172000
      2 C2           3.3210     1.9010     1.3440 ca         1 6QU      -0.089000
      3 C3           2.4900     0.8060     1.0590 ca         1 6QU      -0.087000
      4 C4           2.8490    -0.1600     0.0800 cp         1 6QU      -0.152500
      5 C5           1.9490    -1.3260    -0.2040 cp         1 6QU       0.404500
      6 C6           2.4380    -2.6320    -0.4450 ca         1 6QU      -0.115000
      7 C7           1.5380    -3.6820    -0.6820 ca         1 6QU      -0.083000
      8 C8           0.1640    -3.3970    -0.6560 ca         1 6QU      -0.107000
      9 C17          4.0730     0.0340    -0.6170 ca         1 6QU       0.153000
     10 C            4.9090     1.1390    -0.3310 ca         1 6QU       0.098100
     11 O            6.0860     1.3220    -1.0080 oh         1 6QU      -0.515100
     12 N            0.6200    -1.0750    -0.1660 nb         1 6QU      -0.649000
     13 C9          -0.2750    -2.0830    -0.3780 ca         1 6QU       0.283500
     14 C10         -1.7810    -1.7860    -0.3720 c          1 6QU       0.521200
     15 O1          -2.5670    -2.4950    -1.0020 o          1 6QU      -0.565100
     16 C11         -2.3330    -0.5980     0.4010 ca         1 6QU      -0.254600
     17 C16         -3.5180     0.0490    -0.0200 ca         1 6QU       0.154100
     18 O3          -4.1950    -0.4000    -1.1200 oh         1 6QU      -0.563100
     19 C15         -4.0260     1.1620     0.6830 ca         1 6QU       0.038100
     20 O2          -5.1730     1.7720     0.2350 oh         1 6QU      -0.517100
     21 C14         -3.3530     1.6200     1.8330 ca         1 6QU       0.207000
     22 F           -3.8240     2.6830     2.5270 f          1 6QU      -0.157000
     23 C13         -2.1960     0.9680     2.2800 ca         1 6QU      -0.185000
     24 C12         -1.6900    -0.1360     1.5750 ca         1 6QU      -0.012000
     25 H1           5.1660     2.9200     0.8820 ha         1 6QU       0.119000
     26 H2           3.0250     2.6230     2.1030 ha         1 6QU       0.122000
     27 H3           1.5590     0.6980     1.6120 ha         1 6QU       0.131000
     28 H4           3.5060    -2.8290    -0.4320 ha         1 6QU       0.139000
     29 H5           1.8960    -4.6910    -0.8750 ha         1 6QU       0.129000
     30 H6          -0.5580    -4.1890    -0.8370 ha         1 6QU       0.141000
     31 H7           6.5190     2.1370    -0.6740 ho         1 6QU       0.470000
     32 H8          -3.7950    -1.2780    -1.3520 ho         1 6QU       0.525000
     33 H9          -5.4580     1.2810    -0.5700 ho         1 6QU       0.486000
     34 H10         -1.6930     1.3180     3.1770 ha         1 6QU       0.138000
     35 H11         -0.8030    -0.6350     1.9600 ha         1 6QU       0.130000
     36 F1           4.4390    -0.8240    -1.6000 f          1 6QU      -0.165000
@<TRIPOS>BOND
     1     1     2 ar  
     2     1    10 ar  
     3     1    25 1   
     4     2     3 ar  
     5     2    26 1   
     6     3     4 ar  
     7     3    27 1   
     8     4     5 1   
     9     4     9 ar  
    10     5     6 ar  
    11     5    12 ar  
    12     6     7 ar  
    13     6    28 1   
    14     7     8 ar  
    15     7    29 1   
    16     8    13 ar  
    17     8    30 1   
    18     9    10 ar  
    19     9    36 1   
    20    10    11 1   
    21    11    31 1   
    22    12    13 ar  
    23    13    14 1   
    24    14    15 2   
    25    14    16 1   
    26    16    17 ar  
    27    16    24 ar  
    28    17    18 1   
    29    17    19 ar  
    30    18    32 1   
    31    19    20 1   
    32    19    21 ar  
    33    20    33 1   
    34    21    22 1   
    35    21    23 ar  
    36    23    24 ar  
    37    23    34 1   
    38    24    35 1   
@<TRIPOS>SUBSTRUCTURE
     1 6QU         1 TEMP              0 ****  ****    0 ROOT
