@<TRIPOS>MOLECULE
6QU
   36    38     1     0     0
SMALL
bcc


@<TRIPOS>ATOM
      1 C1           4.6190     2.0130     0.5860 ca         1 6QU      -0.190000
      2 C2           3.3790     1.9460     1.2090 ca         1 6QU      -0.107000
      3 C3           2.5180     0.8960     0.9540 ca         1 6QU      -0.105000
      4 C4           2.8880    -0.1260     0.0750 cp         1 6QU      -0.152500
      5 C5           1.9610    -1.2510    -0.1770 cp         1 6QU       0.469800
      6 C6           2.3960    -2.5720    -0.2870 ca         1 6QU      -0.198300
      7 C7           1.4590    -3.5690    -0.4990 ca         1 6QU      -0.101000
      8 C8           0.1200    -3.2300    -0.6050 ca         1 6QU      -0.190300
      9 C17          4.1220    -0.0300    -0.5460 ca         1 6QU       0.117900
     10 C            5.0030     1.0220    -0.3080 ca         1 6QU       0.098100
     11 O            6.1710     1.0110    -0.9710 oh         1 6QU      -0.476100
     12 N            0.6720    -0.9350    -0.2380 nb         1 6QU      -0.649000
     13 C9          -0.2200    -1.8930    -0.4470 ca         1 6QU       0.348800
     14 C10         -1.6510    -1.4820    -0.5950 c          1 6QU       0.521200
     15 O1          -2.3010    -2.0200    -1.4880 o          1 6QU      -0.565100
     16 C11         -2.2540    -0.4840     0.2870 ca         1 6QU      -0.254600
     17 C16         -3.5490    -0.0200    -0.0200 ca         1 6QU       0.154100
     18 O3          -4.2530    -0.4310    -1.0730 oh         1 6QU      -0.524100
     19 C15         -4.1750     0.9310     0.7960 ca         1 6QU       0.038100
     20 O2          -5.4030     1.4120     0.5350 oh         1 6QU      -0.478100
     21 C14         -3.4970     1.3730     1.9150 ca         1 6QU       0.171900
     22 F           -4.1020     2.2730     2.6930 f          1 6QU      -0.121900
     23 C13         -2.2350     0.9130     2.2610 ca         1 6QU      -0.203000
     24 C12         -1.6210    -0.0110     1.4470 ca         1 6QU      -0.030000
     25 H1           5.2910     2.8380     0.7920 ha         1 6QU       0.137000
     26 H2           3.0910     2.7250     1.9010 ha         1 6QU       0.140000
     27 H3           1.5550     0.8490     1.4440 ha         1 6QU       0.149000
     28 H4           3.4400    -2.8260    -0.1820 ha         1 6QU       0.157000
     29 H5           1.7710    -4.6010    -0.5790 ha         1 6QU       0.147000
     30 H6          -0.6350    -3.9820    -0.7830 ha         1 6QU       0.159000
     31 H7           6.6970     1.7820    -0.7290 ho         1 6QU       0.431000
     32 H8          -3.7430    -1.1520    -1.5100 ho         1 6QU       0.486000
     33 H9          -5.7760     0.9710    -0.2380 ho         1 6QU       0.447000
     34 H10         -1.7550     1.2790     3.1580 ha         1 6QU       0.156000
     35 H11         -0.6450    -0.3790     1.7190 ha         1 6QU       0.148000
     36 F1           4.5030    -0.9600    -1.4360 f          1 6QU      -0.129900
@<TRIPOS>BOND
     1     1     2 ar  
     2     1    10 ar  
     3     1    25 1   
     4     2     3 ar  
     5     2    26 1   
     6     3     4 ar  
     7     3    27 1   
     8     4     5 1   
     9     4     9 ar  
    10     5     6 ar  
    11     5    12 ar  
    12     6     7 ar  
    13     6    28 1   
    14     7     8 ar  
    15     7    29 1   
    16     8    13 ar  
    17     8    30 1   
    18     9    10 ar  
    19     9    36 1   
    20    10    11 1   
    21    11    31 1   
    22    12    13 ar  
    23    13    14 1   
    24    14    15 2   
    25    14    16 1   
    26    16    17 ar  
    27    16    24 ar  
    28    17    18 1   
    29    17    19 ar  
    30    18    32 1   
    31    19    20 1   
    32    19    21 ar  
    33    20    33 1   
    34    21    22 1   
    35    21    23 ar  
    36    23    24 ar  
    37    23    34 1   
    38    24    35 1   
@<TRIPOS>SUBSTRUCTURE
     1 6QU         1 TEMP              0 ****  ****    0 ROOT
