@<TRIPOS>MOLECULE
6QW
   64    66     1     0     0
SMALL
abcg2


@<TRIPOS>ATOM
      1 C10          0.1970    -0.4040     0.4600 ca         1 6QW      -0.088000
      2 C11          0.6730     0.6330     1.2530 ca         1 6QW      -0.085300
      3 C13         -1.5980     1.2950     1.6640 ca         1 6QW      -0.094000
      4 C18         -8.3230    -1.9820     0.2690 c3         1 6QW      -0.336100
      5 O22          3.6160    -1.4420     0.2850 o          1 6QW      -0.527000
      6 O21          4.4470     0.0590    -1.5430 o          1 6QW      -0.527000
      7 C19          2.8730     2.2650    -0.4460 c3         1 6QW       0.229800
      8 C24          6.6220    -0.6020     0.6040 ca         1 6QW      -0.080300
      9 C26          8.5920    -1.1850    -0.6590 ca         1 6QW      -0.109000
     10 C30          1.6470     2.5210    -1.3230 c3         1 6QW      -0.068700
     11 C27          8.7200    -2.3580     0.0730 ca         1 6QW      -0.099000
     12 C28          7.8000    -2.6540     1.0710 ca         1 6QW      -0.109000
     13 C29          6.7540    -1.7810     1.3330 ca         1 6QW      -0.085500
     14 C01         -6.2920    -0.0660     0.3650 ca         1 6QW      -0.269500
     15 C02         -5.7500     0.0050     1.6410 ca         1 6QW      -0.017500
     16 C03         -4.3760     0.1050     1.7840 ca         1 6QW      -0.121000
     17 C04         -3.5370     0.1390     0.6690 cp         1 6QW       0.024000
     18 C05         -4.1120     0.0830    -0.6020 ca         1 6QW      -0.121000
     19 C06         -5.4830    -0.0220    -0.7610 ca         1 6QW      -0.017500
     20 C08         -2.0750     0.2710     0.8490 cp         1 6QW      -0.051000
     21 C09         -1.1610    -0.6050     0.2390 ca         1 6QW      -0.052300
     22 C12         -0.2390     1.4820     1.8620 ca         1 6QW      -0.110000
     23 C14         -1.5940    -1.7620    -0.6170 c3         1 6QW      -0.051800
     24 N15          2.8820     0.9540     0.2010 n3         1 6QW      -0.777500
     25 O16         -8.4120     0.2230    -1.1660 o          1 6QW      -0.523500
     26 O17         -8.6940     0.4030     1.3250 o          1 6QW      -0.523500
     27 S20          4.0650    -0.1260    -0.1510 s6         1 6QW       1.202100
     28 C23          5.4810     0.3280     0.8700 c3         1 6QW      -0.269100
     29 C25          7.5450    -0.3130    -0.3970 ca         1 6QW      -0.085500
     30 C31          1.7420     3.9360    -1.8860 c3         1 6QW      -0.087600
     31 C32          1.5120     1.4940    -2.4380 c3         1 6QW      -0.087600
     32 C33          2.1540     0.8210     1.4580 c3         1 6QW       0.271100
     33 H1           0.9050    -1.0810    -0.0050 ha         1 6QW       0.132000
     34 H2          -2.3000     1.9730     2.1330 ha         1 6QW       0.119000
     35 H3          -7.9990    -2.3500     1.2400 h1         1 6QW       0.102700
     36 H4          -9.3920    -2.1490     0.1420 h1         1 6QW       0.102700
     37 H5          -7.7710    -2.4750    -0.5270 h1         1 6QW       0.102700
     38 H6           3.7720     2.3770    -1.0550 h1         1 6QW       0.047200
     39 H7           2.9330     3.0280     0.3380 h1         1 6QW       0.047200
     40 H8           9.3090    -0.9490    -1.4340 ha         1 6QW       0.116000
     41 H9           0.7550     2.4670    -0.6930 hc         1 6QW       0.057700
     42 H10          9.5350    -3.0400    -0.1310 ha         1 6QW       0.114000
     43 H11          7.8950    -3.5660     1.6450 ha         1 6QW       0.116000
     44 H12          6.0400    -2.0120     2.1130 ha         1 6QW       0.118000
     45 H13         -6.3810    -0.0210     2.5190 ha         1 6QW       0.137500
     46 H14         -3.9510     0.1490     2.7790 ha         1 6QW       0.124000
     47 H15         -3.4850     0.1410    -1.4820 ha         1 6QW       0.124000
     48 H16         -5.9070    -0.0590    -1.7550 ha         1 6QW       0.137500
     49 H17          0.1070     2.3010     2.4810 ha         1 6QW       0.113000
     50 H18         -1.7980    -1.4520    -1.6430 hc         1 6QW       0.047367
     51 H19         -0.8120    -2.5180    -0.6610 hc         1 6QW       0.047367
     52 H20         -2.4990    -2.2390    -0.2410 hc         1 6QW       0.047367
     53 H21          5.1470     0.2890     1.9080 h1         1 6QW       0.092200
     54 H22          5.7240     1.3630     0.6240 h1         1 6QW       0.092200
     55 H23          7.4520     0.6030    -0.9680 ha         1 6QW       0.118000
     56 H24          2.6140     4.0430    -2.5360 hc         1 6QW       0.037367
     57 H25          0.8580     4.1790    -2.4770 hc         1 6QW       0.037367
     58 H26          1.8240     4.6810    -1.0930 hc         1 6QW       0.037367
     59 H27          2.3800     1.5160    -3.0990 hc         1 6QW       0.037367
     60 H28          1.4160     0.4820    -2.0450 hc         1 6QW       0.037367
     61 H29          0.6260     1.6960    -3.0410 hc         1 6QW       0.037367
     62 H30          2.3330     1.7110     2.0680 h1         1 6QW       0.055200
     63 H31          2.5490    -0.0230     2.0250 h1         1 6QW       0.055200
     64 S07         -8.0470    -0.2280     0.1760 sy         1 6QW       1.057500
@<TRIPOS>BOND
     1     1     2 ar  
     2     1    21 ar  
     3     1    33 1   
     4     2    22 ar  
     5     2    32 1   
     6     3    20 ar  
     7     3    22 ar  
     8     3    34 1   
     9     4    35 1   
    10     4    36 1   
    11     4    37 1   
    12     4    64 1   
    13     5    27 2   
    14     6    27 2   
    15     7    10 1   
    16     7    24 1   
    17     7    38 1   
    18     7    39 1   
    19     8    13 ar  
    20     8    28 1   
    21     8    29 ar  
    22     9    11 ar  
    23     9    29 ar  
    24     9    40 1   
    25    10    30 1   
    26    10    31 1   
    27    10    41 1   
    28    11    12 ar  
    29    11    42 1   
    30    12    13 ar  
    31    12    43 1   
    32    13    44 1   
    33    14    15 ar  
    34    14    19 ar  
    35    14    64 1   
    36    15    16 ar  
    37    15    45 1   
    38    16    17 ar  
    39    16    46 1   
    40    17    18 ar  
    41    17    20 1   
    42    18    19 ar  
    43    18    47 1   
    44    19    48 1   
    45    20    21 ar  
    46    21    23 1   
    47    22    49 1   
    48    23    50 1   
    49    23    51 1   
    50    23    52 1   
    51    24    27 1   
    52    24    32 1   
    53    25    64 2   
    54    26    64 2   
    55    27    28 1   
    56    28    53 1   
    57    28    54 1   
    58    29    55 1   
    59    30    56 1   
    60    30    57 1   
    61    30    58 1   
    62    31    59 1   
    63    31    60 1   
    64    31    61 1   
    65    32    62 1   
    66    32    63 1   
@<TRIPOS>SUBSTRUCTURE
     1 6QW         1 TEMP              0 ****  ****    0 ROOT
