@<TRIPOS>MOLECULE
6QW
   64    66     1     0     0
SMALL
No Charge or Current Charge


@<TRIPOS>ATOM
      1 C10         -0.0720    -1.1320    -0.1020 ca         1 6QW      -0.088000
      2 C11          0.6940    -0.4020     0.8250 ca         1 6QW      -0.085300
      3 C13         -1.3480     0.6100     1.6760 ca         1 6QW      -0.094000
      4 C18         -8.8440    -0.8290     0.2680 c3         1 6QW      -0.336100
      5 O22          4.4930    -2.0940    -0.1690 o          1 6QW      -0.527000
      6 O21          4.9830    -0.2870    -1.8640 o          1 6QW      -0.527000
      7 C19          2.7500     1.3590    -0.6710 c3         1 6QW       0.229800
      8 C24          6.9320    -0.1140     0.7850 ca         1 6QW      -0.080300
      9 C26          9.2270     0.2690     0.0520 ca         1 6QW      -0.109000
     10 C30          1.4560     1.7810    -1.4240 c3         1 6QW      -0.068700
     11 C27          9.6720    -0.7670     0.8910 ca         1 6QW      -0.099000
     12 C28          8.7490    -1.4750     1.6790 ca         1 6QW      -0.109000
     13 C29          7.3820    -1.1490     1.6260 ca         1 6QW      -0.085500
     14 C01         -6.4200     0.5380     0.7050 ca         1 6QW      -0.269500
     15 C02         -5.7660     0.1440     1.8900 ca         1 6QW      -0.017500
     16 C03         -4.3760    -0.0600     1.8900 ca         1 6QW      -0.121000
     17 C04         -3.6100     0.1130     0.7140 cp         1 6QW       0.024000
     18 C05         -4.2820     0.5170    -0.4650 ca         1 6QW      -0.121000
     19 C06         -5.6710     0.7240    -0.4750 ca         1 6QW      -0.017500
     20 C08         -2.1310    -0.0980     0.7330 cp         1 6QW      -0.051000
     21 C09         -1.4730    -0.9920    -0.1600 ca         1 6QW      -0.052300
     22 C12          0.0460     0.4640     1.7230 ca         1 6QW      -0.110000
     23 C14         -2.2370    -1.8340    -1.1780 c3         1 6QW      -0.051800
     24 N15          2.9000    -0.0950    -0.3850 n3         1 6QW      -0.777500
     25 O16         -8.5560     1.6840    -0.4190 o          1 6QW      -0.523500
     26 O17         -8.6570     1.0700     2.0650 o          1 6QW      -0.523500
     27 S20          4.5210    -0.6710    -0.5250 s6         1 6QW       1.202100
     28 C23          5.4510     0.2400     0.7290 c3         1 6QW      -0.269100
     29 C25          7.8600     0.5950    -0.0010 ca         1 6QW      -0.085500
     30 C31          1.4330     3.3070    -1.6670 c3         1 6QW      -0.087600
     31 C32          1.2700     1.0090    -2.7520 c3         1 6QW      -0.087600
     32 C33          2.2090    -0.5550     0.8480 c3         1 6QW       0.271100
     33 H1           0.4330    -1.8060    -0.7910 ha         1 6QW       0.132000
     34 H2          -1.8320     1.2950     2.3690 ha         1 6QW       0.119000
     35 H3          -8.5140    -1.5380     1.0350 h1         1 6QW       0.102700
     36 H4          -9.9370    -0.7700     0.2380 h1         1 6QW       0.102700
     37 H5          -8.4430    -1.1060    -0.7120 h1         1 6QW       0.102700
     38 H6           3.5830     1.7090    -1.2960 h1         1 6QW       0.047200
     39 H7           2.8190     1.9300     0.2650 h1         1 6QW       0.047200
     40 H8           9.9400     0.8180    -0.5590 ha         1 6QW       0.116000
     41 H9           0.5900     1.5640    -0.7940 hc         1 6QW       0.057700
     42 H10         10.7290    -1.0190     0.9320 ha         1 6QW       0.114000
     43 H11          9.0910    -2.2770     2.3290 ha         1 6QW       0.116000
     44 H12          6.6740    -1.7030     2.2390 ha         1 6QW       0.118000
     45 H13         -6.3280    -0.0070     2.8110 ha         1 6QW       0.137500
     46 H14         -3.8840    -0.3650     2.8100 ha         1 6QW       0.124000
     47 H15         -3.7140     0.6800    -1.3770 ha         1 6QW       0.124000
     48 H16         -6.1580     1.0310    -1.4000 ha         1 6QW       0.137500
     49 H17          0.6220     1.0330     2.4500 ha         1 6QW       0.113000
     50 H18         -2.4190    -1.2670    -2.0980 hc         1 6QW       0.047367
     51 H19         -1.6780    -2.7370    -1.4520 hc         1 6QW       0.047367
     52 H20         -3.2050    -2.1650    -0.7840 hc         1 6QW       0.047367
     53 H21          4.9700     0.0230     1.6880 h1         1 6QW       0.092200
     54 H22          5.3220     1.3030     0.4990 h1         1 6QW       0.092200
     55 H23          7.5240     1.3970    -0.6540 ha         1 6QW       0.118000
     56 H24          2.2660     3.6150    -2.3110 hc         1 6QW       0.037367
     57 H25          0.4960     3.6090    -2.1500 hc         1 6QW       0.037367
     58 H26          1.5130     3.8520    -0.7180 hc         1 6QW       0.037367
     59 H27          2.1090     1.1960    -3.4340 hc         1 6QW       0.037367
     60 H28          1.2100    -0.0710    -2.5740 hc         1 6QW       0.037367
     61 H29          0.3440     1.3160    -3.2530 hc         1 6QW       0.037367
     62 H30          2.6100    -0.0260     1.7230 h1         1 6QW       0.055200
     63 H31          2.4010    -1.6220     1.0200 h1         1 6QW       0.055200
     64 S07         -8.2080     0.7910     0.6950 sy         1 6QW       1.057500
@<TRIPOS>BOND
     1     1     2 ar  
     2     1    21 ar  
     3     1    33 1   
     4     2    22 ar  
     5     2    32 1   
     6     3    20 ar  
     7     3    22 ar  
     8     3    34 1   
     9     4    35 1   
    10     4    36 1   
    11     4    37 1   
    12     4    64 1   
    13     5    27 2   
    14     6    27 2   
    15     7    10 1   
    16     7    24 1   
    17     7    38 1   
    18     7    39 1   
    19     8    13 ar  
    20     8    28 1   
    21     8    29 ar  
    22     9    11 ar  
    23     9    29 ar  
    24     9    40 1   
    25    10    30 1   
    26    10    31 1   
    27    10    41 1   
    28    11    12 ar  
    29    11    42 1   
    30    12    13 ar  
    31    12    43 1   
    32    13    44 1   
    33    14    15 ar  
    34    14    19 ar  
    35    14    64 1   
    36    15    16 ar  
    37    15    45 1   
    38    16    17 ar  
    39    16    46 1   
    40    17    18 ar  
    41    17    20 1   
    42    18    19 ar  
    43    18    47 1   
    44    19    48 1   
    45    20    21 ar  
    46    21    23 1   
    47    22    49 1   
    48    23    50 1   
    49    23    51 1   
    50    23    52 1   
    51    24    27 1   
    52    24    32 1   
    53    25    64 2   
    54    26    64 2   
    55    27    28 1   
    56    28    53 1   
    57    28    54 1   
    58    29    55 1   
    59    30    56 1   
    60    30    57 1   
    61    30    58 1   
    62    31    59 1   
    63    31    60 1   
    64    31    61 1   
    65    32    62 1   
    66    32    63 1   
@<TRIPOS>SUBSTRUCTURE
     1 6QW         1 TEMP              0 ****  ****    0 ROOT
