@<TRIPOS>MOLECULE
6QX
   46    49     1     0     0
SMALL
bcc


@<TRIPOS>ATOM
      1 C1           6.6280     1.0930    -0.5460 c3         1 6QX       0.151100
      2 C3           6.5150    -0.5500     1.1540 c3         1 6QX       0.151100
      3 C7           2.2980     1.1450    -0.8570 c6         1 6QX      -0.091400
      4 C8           1.5540    -0.0730    -0.3310 c6         1 6QX       0.239500
      5 C10          2.1870    -0.5320     0.9770 c6         1 6QX      -0.091400
      6 C11          3.6680    -0.8450     0.7890 c6         1 6QX      -0.072900
      7 C13         -0.8390    -0.6670    -0.1610 ca         1 6QX       0.758200
      8 C14         -2.1990    -0.2810    -0.0360 ca         1 6QX      -0.351400
      9 C15         -2.8480     0.9870     0.0550 cc         1 6QX      -0.067400
     10 C16         -4.1910     0.8740     0.1450 cd         1 6QX      -0.105600
     11 C20         -1.5120    -2.8520    -0.2400 ca         1 6QX       0.695900
     12 C22         -4.8980     2.1790     0.2980 c5         1 6QX      -0.003200
     13 C24         -2.4260     2.4250     0.1250 c5         1 6QX      -0.018200
     14 N19         -2.8050    -2.6270    -0.1170 nb         1 6QX      -0.717000
     15 N2           5.8520    -0.0140    -0.0190 n3         1 6QX      -0.716600
     16 C18         -3.1130    -1.3340    -0.0180 ca         1 6QX       0.496600
     17 N12          0.1450     0.2410    -0.1960 nu         1 6QX      -0.865900
     18 C6           3.7800     0.8480    -1.0480 c6         1 6QX      -0.072900
     19 S17         -4.7500    -0.7610     0.1290 ss         1 6QX      -0.084900
     20 C4           4.4560     0.3460     0.2320 c6         1 6QX       0.184500
     21 C23         -3.7680     3.1750    -0.0580 c5         1 6QX      -0.075400
     22 N21         -0.5290    -1.9600    -0.2650 nb         1 6QX      -0.808000
     23 H1           7.6640     0.7780    -0.6750 h1         1 6QX       0.030033
     24 H2           6.2690     1.4060    -1.5240 h1         1 6QX       0.030033
     25 H3           6.6300     1.9770     0.1130 h1         1 6QX       0.030033
     26 H4           6.4850     0.1290     2.0210 h1         1 6QX       0.030033
     27 H5           6.0850    -1.5030     1.4570 h1         1 6QX       0.030033
     28 H6           7.5630    -0.7370     0.9200 h1         1 6QX       0.030033
     29 H7           1.8630     1.4720    -1.8050 hc         1 6QX       0.046950
     30 H8           2.1800     1.9730    -0.1480 hc         1 6QX       0.046950
     31 H9           1.6470    -0.8810    -1.0630 h1         1 6QX       0.082700
     32 H10          2.0620     0.2550     1.7300 hc         1 6QX       0.046950
     33 H11          1.6680    -1.4170     1.3500 hc         1 6QX       0.046950
     34 H12          4.0710    -1.1610     1.7520 hc         1 6QX       0.050950
     35 H13          3.7810    -1.6920     0.1030 hc         1 6QX       0.050950
     36 H14         -1.2100    -3.8900    -0.3280 h5         1 6QX       0.045100
     37 H15         -5.7610     2.2850    -0.3590 hc         1 6QX       0.056200
     38 H16         -5.2560     2.3120     1.3230 hc         1 6QX       0.056200
     39 H17         -1.9680     2.6500     1.0930 hc         1 6QX       0.049200
     40 H18         -1.7040     2.7060    -0.6450 hc         1 6QX       0.049200
     41 H20         -0.0940     1.2020    -0.0130 hn         1 6QX       0.439800
     42 H21          3.9090     0.0920    -1.8320 hc         1 6QX       0.050950
     43 H22          4.2600     1.7580    -1.4070 hc         1 6QX       0.050950
     44 H23          4.4020     1.1620     0.9810 h1         1 6QX       0.017700
     45 H24         -3.8720     3.4720    -1.1020 hc         1 6QX       0.047200
     46 H25         -3.8160     4.0800     0.5450 hc         1 6QX       0.047200
@<TRIPOS>BOND
     1     1    15 1   
     2     1    23 1   
     3     1    24 1   
     4     1    25 1   
     5     2    15 1   
     6     2    26 1   
     7     2    27 1   
     8     2    28 1   
     9     3     4 1   
    10     3    18 1   
    11     3    29 1   
    12     3    30 1   
    13     4     5 1   
    14     4    17 1   
    15     4    31 1   
    16     5     6 1   
    17     5    32 1   
    18     5    33 1   
    19     6    20 1   
    20     6    34 1   
    21     6    35 1   
    22     7     8 ar  
    23     7    17 1   
    24     7    22 ar  
    25     8     9 1   
    26     8    16 ar  
    27     9    10 2   
    28     9    13 1   
    29    10    12 1   
    30    10    19 1   
    31    11    14 ar  
    32    11    22 ar  
    33    11    36 1   
    34    12    21 1   
    35    12    37 1   
    36    12    38 1   
    37    13    21 1   
    38    13    39 1   
    39    13    40 1   
    40    14    16 ar  
    41    15    20 1   
    42    16    19 1   
    43    17    41 1   
    44    18    20 1   
    45    18    42 1   
    46    18    43 1   
    47    20    44 1   
    48    21    45 1   
    49    21    46 1   
@<TRIPOS>SUBSTRUCTURE
     1 6QX         1 TEMP              0 ****  ****    0 ROOT
