@<TRIPOS>MOLECULE
6QX
   46    49     1     0     0
SMALL
No Charge or Current Charge


@<TRIPOS>ATOM
      1 C1           6.6580     1.1950    -0.4060 c3         1 6QX       0.151100
      2 C3           6.3770    -0.2390     1.5450 c3         1 6QX       0.151100
      3 C7           2.2890     0.9800    -1.2480 c6         1 6QX      -0.091400
      4 C8           1.5130    -0.2220    -0.6660 c6         1 6QX       0.239500
      5 C10          1.9980    -0.5090     0.7740 c6         1 6QX      -0.091400
      6 C11          3.5250    -0.7680     0.8140 c6         1 6QX      -0.072900
      7 C13         -0.9550    -0.8250    -0.4860 ca         1 6QX       0.429900
      8 C14         -2.2500    -0.4120    -0.1360 ca         1 6QX      -0.220800
      9 C15         -2.7620     0.9240     0.0990 cc         1 6QX      -0.067400
     10 C16         -4.0820     0.8810     0.4410 cd         1 6QX      -0.105600
     11 C20         -1.6970    -3.0040    -0.4720 ca         1 6QX       0.169900
     12 C22         -4.5660     2.2720     0.7570 c5         1 6QX      -0.003200
     13 C24         -2.1870     2.3030     0.0970 c5         1 6QX      -0.018200
     14 N19         -2.9690    -2.6990    -0.1300 nb         1 6QX      -0.191000
     15 N2           5.8320     0.1250     0.2110 n3         1 6QX      -0.716600
     16 C18         -3.2210    -1.3870     0.0330 ca         1 6QX       0.168300
     17 N12          0.0760     0.0920    -0.6610 nu         1 6QX      -0.921100
     18 C6           3.8180     0.7300    -1.2240 c6         1 6QX      -0.072900
     19 S17         -4.8150    -0.7400     0.4980 ss         1 6QX      -0.084900
     20 C4           4.3540     0.4140     0.2120 c6         1 6QX       0.184500
     21 C23         -3.4530     3.2200     0.1760 c5         1 6QX      -0.075400
     22 N21         -0.6760    -2.1340    -0.6580 nb         1 6QX      -0.282000
     23 H1           7.7270     0.9610    -0.3190 h1         1 6QX       0.030033
     24 H2           6.4450     1.3020    -1.4770 h1         1 6QX       0.030033
     25 H3           6.4790     2.1610     0.0850 h1         1 6QX       0.030033
     26 H4           6.1640     0.5460     2.2830 h1         1 6QX       0.030033
     27 H5           5.9590    -1.1860     1.9070 h1         1 6QX       0.030033
     28 H6           7.4660    -0.3740     1.4970 h1         1 6QX       0.030033
     29 H7           1.9650     1.1670    -2.2810 hc         1 6QX       0.046950
     30 H8           2.0600     1.8910    -0.6770 hc         1 6QX       0.046950
     31 H9           1.7160    -1.1000    -1.3000 h1         1 6QX       0.082700
     32 H10          1.7530     0.3390     1.4290 hc         1 6QX       0.046950
     33 H11          1.4700    -1.3810     1.1830 hc         1 6QX       0.046950
     34 H12          3.8020    -0.9410     1.8620 hc         1 6QX       0.050950
     35 H13          3.7560    -1.6960     0.2720 hc         1 6QX       0.050950
     36 H14         -1.4700    -4.0590    -0.6100 h5         1 6QX       0.045100
     37 H15         -5.5470     2.4850     0.3160 hc         1 6QX       0.056200
     38 H16         -4.6710     2.4110     1.8390 hc         1 6QX       0.056200
     39 H17         -1.5330     2.4500     0.9640 hc         1 6QX       0.049200
     40 H18         -1.5980     2.5090    -0.8040 hc         1 6QX       0.049200
     41 H20         -0.1990     1.0580    -0.5080 hn         1 6QX       0.495000
     42 H21          4.0670    -0.0980    -1.9030 hc         1 6QX       0.050950
     43 H22          4.3040     1.6260    -1.6310 hc         1 6QX       0.050950
     44 H23          4.1680     1.3010     0.8360 h1         1 6QX       0.017700
     45 H24         -3.7350     3.5640    -0.8260 hc         1 6QX       0.047200
     46 H25         -3.2930     4.1130     0.7910 hc         1 6QX       0.047200
@<TRIPOS>BOND
     1     1    15 1   
     2     1    23 1   
     3     1    24 1   
     4     1    25 1   
     5     2    15 1   
     6     2    26 1   
     7     2    27 1   
     8     2    28 1   
     9     3     4 1   
    10     3    18 1   
    11     3    29 1   
    12     3    30 1   
    13     4     5 1   
    14     4    17 1   
    15     4    31 1   
    16     5     6 1   
    17     5    32 1   
    18     5    33 1   
    19     6    20 1   
    20     6    34 1   
    21     6    35 1   
    22     7     8 ar  
    23     7    17 1   
    24     7    22 ar  
    25     8     9 1   
    26     8    16 ar  
    27     9    10 2   
    28     9    13 1   
    29    10    12 1   
    30    10    19 1   
    31    11    14 ar  
    32    11    22 ar  
    33    11    36 1   
    34    12    21 1   
    35    12    37 1   
    36    12    38 1   
    37    13    21 1   
    38    13    39 1   
    39    13    40 1   
    40    14    16 ar  
    41    15    20 1   
    42    16    19 1   
    43    17    41 1   
    44    18    20 1   
    45    18    42 1   
    46    18    43 1   
    47    20    44 1   
    48    21    45 1   
    49    21    46 1   
@<TRIPOS>SUBSTRUCTURE
     1 6QX         1 TEMP              0 ****  ****    0 ROOT
