@<TRIPOS>MOLECULE
6QY
   54    57     1     0     0
SMALL
No Charge or Current Charge


@<TRIPOS>ATOM
      1 C1          -4.0950     0.6370    -0.2490 c6         1 6QY       0.183500
      2 C2          -3.6300     0.6320     1.2450 c6         1 6QY      -0.072400
      3 C3          -2.0900     0.5390     1.3890 c6         1 6QY      -0.091900
      4 C7           0.7700    -1.7750     0.4840 ca         1 6QY       0.437900
      5 C8           1.0910    -4.0250     0.1800 ca         1 6QY       0.179900
      6 C9           2.9170    -2.6710    -0.0860 ca         1 6QY       0.150500
      7 C10          2.1310    -1.5800     0.1930 ca         1 6QY      -0.258800
      8 C11          2.9460    -0.3860     0.1350 cc         1 6QY      -0.099400
      9 C12          4.2230    -0.8420    -0.1790 cd         1 6QY      -0.174100
     10 C13          2.5700     1.0780     0.3130 c6         1 6QY       0.011500
     11 C14          3.7930     2.0020     0.5760 c6         1 6QY      -0.112900
     12 C15          3.3370     3.4760     0.6870 c6         1 6QY       0.153600
     13 C16          1.4400     3.0910    -0.7690 c6         1 6QY       0.153600
     14 C18         -6.2320     1.8090     0.3520 c3         1 6QY       0.150100
     15 N           -5.5960     0.6770    -0.3720 n3         1 6QY      -0.713600
     16 C           -6.0890     0.6240    -1.7730 c3         1 6QY       0.150100
     17 C6          -3.4810    -0.6050    -0.9760 c6         1 6QY      -0.072400
     18 C5          -1.9420    -0.6890    -0.8150 c6         1 6QY      -0.091900
     19 C4          -1.5310    -0.7120     0.6770 c6         1 6QY       0.241500
     20 N1          -0.0670    -0.7150     0.8000 nu         1 6QY      -0.928100
     21 N4           4.2100    -2.2490    -0.3170 na         1 6QY      -0.315400
     22 N3           2.4100    -3.9170    -0.1000 nb         1 6QY      -0.235000
     23 N2           0.2430    -3.0140     0.4750 nb         1 6QY      -0.302000
     24 C17          1.8010     1.5950    -0.9350 c6         1 6QY      -0.112900
     25 O            2.6340     3.8610    -0.5150 os         1 6QY      -0.448000
     26 H1          -3.6770     1.5380    -0.7230 h1         1 6QY       0.017700
     27 H2          -3.9530     1.5490     1.7540 hc         1 6QY       0.050700
     28 H3          -4.1020    -0.2060     1.7770 hc         1 6QY       0.050700
     29 H4          -1.6300     1.4470     0.9750 hc         1 6QY       0.045950
     30 H5          -1.8240     0.5100     2.4550 hc         1 6QY       0.045950
     31 H6           0.6700    -5.0290     0.1710 h5         1 6QY       0.043100
     32 H7           5.1370    -0.2730    -0.3280 h4         1 6QY       0.217000
     33 H8           1.9120     1.1680     1.1880 hc         1 6QY       0.043700
     34 H9           4.3070     1.7000     1.4990 hc         1 6QY       0.054450
     35 H10          4.5230     1.9230    -0.2410 hc         1 6QY       0.054450
     36 H11          2.6750     3.6100     1.5560 h1         1 6QY       0.042950
     37 H12          4.2100     4.1310     0.8160 h1         1 6QY       0.042950
     38 H13          0.9600     3.4650    -1.6850 h1         1 6QY       0.042950
     39 H14          0.7350     3.2250     0.0660 h1         1 6QY       0.042950
     40 H15         -5.8160     2.7700     0.0210 h1         1 6QY       0.030033
     41 H16         -7.3150     1.8260     0.1730 h1         1 6QY       0.030033
     42 H17         -6.0930     1.7210     1.4370 h1         1 6QY       0.030033
     43 H19         -5.6550     1.4350    -2.3730 h1         1 6QY       0.030033
     44 H20         -5.8460    -0.3340    -2.2500 h1         1 6QY       0.030033
     45 H21         -7.1820     0.7230    -1.8060 h1         1 6QY       0.030033
     46 H22         -3.9420    -1.5250    -0.5910 hc         1 6QY       0.050700
     47 H23         -3.6970    -0.5710    -2.0510 hc         1 6QY       0.050700
     48 H24         -1.5720    -1.5900    -1.3220 hc         1 6QY       0.045950
     49 H25         -1.4760     0.1680    -1.3210 hc         1 6QY       0.045950
     50 H26         -1.9630    -1.6060     1.1580 h1         1 6QY       0.085700
     51 H27          0.4060     0.1830     0.7920 hn         1 6QY       0.493000
     52 H28          4.9970    -2.8480    -0.5470 hn         1 6QY       0.363000
     53 H29          2.4200     1.4680    -1.8330 hc         1 6QY       0.054450
     54 H30          0.8890     1.0110    -1.1060 hc         1 6QY       0.054450
@<TRIPOS>BOND
     1     1     2 1   
     2     1    15 1   
     3     1    17 1   
     4     1    26 1   
     5     2     3 1   
     6     2    27 1   
     7     2    28 1   
     8     3    19 1   
     9     3    29 1   
    10     3    30 1   
    11     4     7 ar  
    12     4    20 1   
    13     4    23 ar  
    14     5    22 ar  
    15     5    23 ar  
    16     5    31 1   
    17     6     7 ar  
    18     6    21 1   
    19     6    22 ar  
    20     7     8 1   
    21     8     9 2   
    22     8    10 1   
    23     9    21 1   
    24     9    32 1   
    25    10    11 1   
    26    10    24 1   
    27    10    33 1   
    28    11    12 1   
    29    11    34 1   
    30    11    35 1   
    31    12    25 1   
    32    12    36 1   
    33    12    37 1   
    34    13    24 1   
    35    13    25 1   
    36    13    38 1   
    37    13    39 1   
    38    14    15 1   
    39    14    40 1   
    40    14    41 1   
    41    14    42 1   
    42    15    16 1   
    43    16    43 1   
    44    16    44 1   
    45    16    45 1   
    46    17    18 1   
    47    17    46 1   
    48    17    47 1   
    49    18    19 1   
    50    18    48 1   
    51    18    49 1   
    52    19    20 1   
    53    19    50 1   
    54    20    51 1   
    55    21    52 1   
    56    24    53 1   
    57    24    54 1   
@<TRIPOS>SUBSTRUCTURE
     1 6QY         1 TEMP              0 ****  ****    0 ROOT
