@<TRIPOS>MOLECULE
6QY
   54    57     1     0     0
SMALL
abcg2


@<TRIPOS>ATOM
      1 C1          -4.2640     0.5370    -0.2470 c6         1 6QY       0.183500
      2 C2          -3.7150     0.5550     1.1820 c6         1 6QY      -0.072400
      3 C3          -2.1900     0.5660     1.2190 c6         1 6QY      -0.091900
      4 C7           0.6830    -1.5730     0.3150 ca         1 6QY       0.437900
      5 C8           0.9830    -3.8370     0.0840 ca         1 6QY       0.179900
      6 C9           2.8110    -2.6000     0.0980 ca         1 6QY       0.150500
      7 C10          2.0850    -1.4100     0.2280 ca         1 6QY      -0.258800
      8 C11          3.0290    -0.3270     0.2430 cc         1 6QY      -0.099400
      9 C12          4.2570    -0.9150     0.1330 cd         1 6QY      -0.174100
     10 C13          2.7370     1.1410     0.2880 c6         1 6QY       0.011500
     11 C14          3.9510     1.9940     0.6510 c6         1 6QY      -0.112900
     12 C15          3.5760     3.4670     0.6360 c6         1 6QY       0.153600
     13 C16          1.9100     3.1460    -0.9760 c6         1 6QY       0.153600
     14 C18         -6.3620     1.4500     0.5900 c3         1 6QY       0.150100
     15 N           -5.7260     0.4750    -0.2740 n3         1 6QY      -0.713600
     16 C           -6.2480     0.6260    -1.6190 c3         1 6QY       0.150100
     17 C6          -3.6520    -0.6540    -0.9910 c6         1 6QY      -0.072400
     18 C5          -2.1290    -0.6310    -0.9640 c6         1 6QY      -0.091900
     19 C4          -1.5970    -0.6150     0.4650 c6         1 6QY       0.241500
     20 N1          -0.1500    -0.5370     0.5080 nu         1 6QY      -0.928100
     21 N4           4.1210    -2.2790     0.0480 na         1 6QY      -0.315400
     22 N3           2.2970    -3.8330     0.0250 nb         1 6QY      -0.235000
     23 N2           0.1610    -2.7980     0.2190 nb         1 6QY      -0.302000
     24 C17          2.1790     1.6510    -1.0480 c6         1 6QY      -0.112900
     25 O            3.0640     3.8730    -0.6150 os         1 6QY      -0.448000
     26 H1          -3.9180     1.4660    -0.7440 h1         1 6QY       0.017700
     27 H2          -4.0660     1.4350     1.7220 hc         1 6QY       0.050700
     28 H3          -4.0950    -0.3200     1.7210 hc         1 6QY       0.050700
     29 H4          -1.8260     1.4990     0.7720 hc         1 6QY       0.045950
     30 H5          -1.8510     0.5590     2.2570 hc         1 6QY       0.045950
     31 H6           0.5000    -4.8080     0.0170 h5         1 6QY       0.043100
     32 H7           5.2370    -0.4650     0.1010 h4         1 6QY       0.217000
     33 H8           1.9830     1.3270     1.0670 hc         1 6QY       0.043700
     34 H9           4.3310     1.7260     1.6400 hc         1 6QY       0.054450
     35 H10          4.7590     1.8200    -0.0670 hc         1 6QY       0.054450
     36 H11          2.8400     3.6630     1.4310 h1         1 6QY       0.042950
     37 H12          4.4500     4.0890     0.8390 h1         1 6QY       0.042950
     38 H13          1.5830     3.5260    -1.9460 h1         1 6QY       0.042950
     39 H14          1.0980     3.3370    -0.2570 h1         1 6QY       0.042950
     40 H15         -6.0670     2.4890     0.3700 h1         1 6QY       0.030033
     41 H16         -7.4440     1.3850     0.4680 h1         1 6QY       0.030033
     42 H17         -6.1520     1.2570     1.6400 h1         1 6QY       0.030033
     43 H19         -5.9780     1.5910    -2.0780 h1         1 6QY       0.030033
     44 H20         -5.8970    -0.1640    -2.2800 h1         1 6QY       0.030033
     45 H21         -7.3370     0.5650    -1.6000 h1         1 6QY       0.030033
     46 H22         -4.0180    -1.5760    -0.5260 hc         1 6QY       0.050700
     47 H23         -3.9730    -0.6800    -2.0320 hc         1 6QY       0.050700
     48 H24         -1.7350    -1.4990    -1.4980 hc         1 6QY       0.045950
     49 H25         -1.7600     0.2590    -1.4880 hc         1 6QY       0.045950
     50 H26         -1.9020    -1.5400     0.9610 h1         1 6QY       0.085700
     51 H27          0.2550     0.3780     0.6020 hn         1 6QY       0.493000
     52 H28          4.8790    -2.9360    -0.0450 hn         1 6QY       0.363000
     53 H29          2.9040     1.4400    -1.8390 hc         1 6QY       0.054450
     54 H30          1.2550     1.1330    -1.3240 hc         1 6QY       0.054450
@<TRIPOS>BOND
     1     1     2 1   
     2     1    15 1   
     3     1    17 1   
     4     1    26 1   
     5     2     3 1   
     6     2    27 1   
     7     2    28 1   
     8     3    19 1   
     9     3    29 1   
    10     3    30 1   
    11     4     7 ar  
    12     4    20 1   
    13     4    23 ar  
    14     5    22 ar  
    15     5    23 ar  
    16     5    31 1   
    17     6     7 ar  
    18     6    21 1   
    19     6    22 ar  
    20     7     8 1   
    21     8     9 2   
    22     8    10 1   
    23     9    21 1   
    24     9    32 1   
    25    10    11 1   
    26    10    24 1   
    27    10    33 1   
    28    11    12 1   
    29    11    34 1   
    30    11    35 1   
    31    12    25 1   
    32    12    36 1   
    33    12    37 1   
    34    13    24 1   
    35    13    25 1   
    36    13    38 1   
    37    13    39 1   
    38    14    15 1   
    39    14    40 1   
    40    14    41 1   
    41    14    42 1   
    42    15    16 1   
    43    16    43 1   
    44    16    44 1   
    45    16    45 1   
    46    17    18 1   
    47    17    46 1   
    48    17    47 1   
    49    18    19 1   
    50    18    48 1   
    51    18    49 1   
    52    19    20 1   
    53    19    50 1   
    54    20    51 1   
    55    21    52 1   
    56    24    53 1   
    57    24    54 1   
@<TRIPOS>SUBSTRUCTURE
     1 6QY         1 TEMP              0 ****  ****    0 ROOT
