@<TRIPOS>MOLECULE
6QZ
   69    74     1     0     0
SMALL
abcg2


@<TRIPOS>ATOM
      1 C1         -25.6620   -40.9840   -16.6080 c          1 6QZ       0.579000
      2 C2         -25.4100   -39.5280   -16.9030 c5         1 6QZ      -0.156400
      3 C3         -26.0590   -38.7540   -15.7560 c5         1 6QZ      -0.071700
      4 C7         -25.0160   -38.2330   -14.7700 c6         1 6QZ       0.192800
      5 C8         -23.0720   -39.1610   -13.6060 c6         1 6QZ       0.201500
      6 C9         -22.9110   -38.1160   -12.4940 c6         1 6QZ      -0.089400
      7 C10        -21.4440   -37.9340   -12.1170 c6         1 6QZ      -0.089400
      8 C11        -20.8120   -39.2630   -11.7020 c6         1 6QZ       0.233500
      9 C12        -20.9710   -40.3030   -12.8060 c6         1 6QZ      -0.089400
     10 C13        -22.4390   -40.4840   -13.1770 c6         1 6QZ      -0.089400
     11 C14        -18.9360   -38.7510   -10.1680 ca         1 6QZ       0.434900
     12 C15        -19.3510   -38.2010    -7.9770 ca         1 6QZ       0.178900
     13 C16        -17.2380   -38.1750    -8.6140 ca         1 6QZ       0.147500
     14 C19        -15.3440   -38.3290    -9.7610 cc         1 6QZ      -0.174100
     15 C20        -16.1190   -39.1130   -12.0680 c6         1 6QZ       0.012500
     16 C21        -16.3270   -40.6230   -12.2440 c6         1 6QZ      -0.112900
     17 C22        -16.0770   -41.0320   -13.6870 c6         1 6QZ       0.154100
     18 C24        -14.7380   -38.7540   -12.6150 c6         1 6QZ      -0.112900
     19 O          -25.1540   -41.9360   -17.1860 o          1 6QZ      -0.566000
     20 N1         -24.4280   -39.3590   -14.0820 n3         1 6QZ      -0.755600
     21 C6         -25.3460   -39.9870   -13.1410 c6         1 6QZ       0.189800
     22 C5         -26.7990   -39.7580   -13.5500 c6         1 6QZ      -0.099400
     23 C4         -26.9790   -39.7910   -15.0600 c5         1 6QZ       0.123700
     24 N          -26.5780   -41.0630   -15.6320 n          1 6QZ      -0.407800
     25 C          -27.1280   -42.3040   -15.1520 c3         1 6QZ       0.097300
     26 N2         -19.4090   -39.1230   -11.3710 nu         1 6QZ      -0.922100
     27 C17        -17.5550   -38.5740    -9.9200 ca         1 6QZ      -0.253800
     28 C18        -16.3220   -38.6740   -10.6510 cd         1 6QZ      -0.098400
     29 N5         -15.8980   -38.0310    -8.5420 na         1 6QZ      -0.314400
     30 N4         -18.1050   -37.9770    -7.6150 nb         1 6QZ      -0.233000
     31 N3         -19.8070   -38.5660    -9.1730 nb         1 6QZ      -0.303000
     32 C23        -14.5850   -39.2640   -14.0380 c6         1 6QZ       0.154100
     33 O1         -14.7910   -40.6570   -14.1280 os         1 6QZ      -0.448000
     34 H1         -24.3400   -39.3390   -17.0010 hc         1 6QZ       0.075200
     35 H2         -25.8650   -39.2910   -17.8690 hc         1 6QZ       0.075200
     36 H3         -26.6500   -37.9150   -16.1270 hc         1 6QZ       0.060700
     37 H4         -24.2360   -37.7070   -15.3260 h1         1 6QZ       0.034200
     38 H5         -25.4680   -37.4850   -14.1000 h1         1 6QZ       0.034200
     39 H6         -22.4960   -38.8030   -14.4700 h1         1 6QZ       0.053700
     40 H7         -23.3280   -37.1570   -12.8150 hc         1 6QZ       0.049200
     41 H8         -23.4760   -38.4210   -11.6070 hc         1 6QZ       0.049200
     42 H9         -20.8880   -37.5280   -12.9700 hc         1 6QZ       0.047200
     43 H10        -21.3470   -37.2130   -11.3020 hc         1 6QZ       0.047200
     44 H11        -21.3230   -39.6250   -10.8070 h1         1 6QZ       0.086700
     45 H12        -20.5440   -41.2550   -12.4810 hc         1 6QZ       0.047200
     46 H13        -20.4070   -39.9870   -13.6920 hc         1 6QZ       0.047200
     47 H14        -22.9730   -40.8960   -12.3160 hc         1 6QZ       0.049200
     48 H15        -22.5380   -41.2110   -13.9870 hc         1 6QZ       0.049200
     49 H16        -20.1070   -38.0650    -7.2100 h5         1 6QZ       0.042100
     50 H17        -14.2760   -38.2720    -9.8970 h4         1 6QZ       0.217000
     51 H18        -16.8500   -38.5940   -12.7060 hc         1 6QZ       0.041700
     52 H19        -17.3380   -40.9240   -11.9550 hc         1 6QZ       0.054700
     53 H20        -15.6410   -41.1570   -11.5800 hc         1 6QZ       0.054700
     54 H21        -16.8480   -40.5840   -14.3340 h1         1 6QZ       0.043450
     55 H22        -16.1490   -42.1150   -13.7980 h1         1 6QZ       0.043450
     56 H23        -13.9590   -39.1990   -11.9880 hc         1 6QZ       0.054700
     57 H24        -14.5870   -37.6720   -12.6010 hc         1 6QZ       0.054700
     58 H26        -25.1430   -41.0620   -13.1040 h1         1 6QZ       0.035700
     59 H27        -25.2200   -39.6190   -12.1120 h1         1 6QZ       0.035700
     60 H28        -27.1520   -38.7870   -13.1960 hc         1 6QZ       0.048700
     61 H29        -27.4370   -40.5000   -13.0640 hc         1 6QZ       0.048700
     62 H30        -28.0320   -39.6040   -15.3000 h1         1 6QZ       0.049700
     63 H31        -28.1950   -42.1880   -14.9630 h1         1 6QZ       0.039700
     64 H32        -26.9930   -43.0810   -15.9000 h1         1 6QZ       0.039700
     65 H33        -26.6500   -42.6320   -14.2260 h1         1 6QZ       0.039700
     66 H34        -18.7700   -39.0880   -12.1480 hn         1 6QZ       0.489000
     67 H35        -15.3860   -37.7460    -7.7220 hn         1 6QZ       0.363000
     68 H36        -13.5790   -39.0660   -14.4110 h1         1 6QZ       0.043450
     69 H37        -15.2890   -38.7310   -14.6960 h1         1 6QZ       0.043450
@<TRIPOS>BOND
     1     1     2 1   
     2     1    19 2   
     3     1    24 1   
     4     2     3 1   
     5     2    34 1   
     6     2    35 1   
     7     3     4 1   
     8     3    23 1   
     9     3    36 1   
    10     4    20 1   
    11     4    37 1   
    12     4    38 1   
    13     5     6 1   
    14     5    10 1   
    15     5    20 1   
    16     5    39 1   
    17     6     7 1   
    18     6    40 1   
    19     6    41 1   
    20     7     8 1   
    21     7    42 1   
    22     7    43 1   
    23     8     9 1   
    24     8    26 1   
    25     8    44 1   
    26     9    10 1   
    27     9    45 1   
    28     9    46 1   
    29    10    47 1   
    30    10    48 1   
    31    11    26 1   
    32    11    27 ar  
    33    11    31 ar  
    34    12    30 ar  
    35    12    31 ar  
    36    12    49 1   
    37    13    27 ar  
    38    13    29 1   
    39    13    30 ar  
    40    14    28 2   
    41    14    29 1   
    42    14    50 1   
    43    15    16 1   
    44    15    18 1   
    45    15    28 1   
    46    15    51 1   
    47    16    17 1   
    48    16    52 1   
    49    16    53 1   
    50    17    33 1   
    51    17    54 1   
    52    17    55 1   
    53    18    32 1   
    54    18    56 1   
    55    18    57 1   
    56    20    21 1   
    57    21    22 1   
    58    21    58 1   
    59    21    59 1   
    60    22    23 1   
    61    22    60 1   
    62    22    61 1   
    63    23    24 1   
    64    23    62 1   
    65    24    25 1   
    66    25    63 1   
    67    25    64 1   
    68    25    65 1   
    69    26    66 1   
    70    27    28 1   
    71    29    67 1   
    72    32    33 1   
    73    32    68 1   
    74    32    69 1   
@<TRIPOS>SUBSTRUCTURE
     1 6QZ         1 TEMP              0 ****  ****    0 ROOT
