@<TRIPOS>MOLECULE
6QZ
   69    74     1     0     0
SMALL
No Charge or Current Charge


@<TRIPOS>ATOM
      1 C1         -25.4340   -40.6330   -16.9120 c          1 6QZ       0.579000
      2 C2         -25.5030   -39.1330   -17.1670 c5         1 6QZ      -0.156400
      3 C3         -25.8990   -38.5340   -15.7870 c5         1 6QZ      -0.071700
      4 C7         -24.7020   -38.2240   -14.8380 c6         1 6QZ       0.192800
      5 C8         -22.9470   -39.3670   -13.4900 c6         1 6QZ       0.201500
      6 C9         -22.7880   -38.2790   -12.3830 c6         1 6QZ      -0.089400
      7 C10        -21.3240   -38.2090   -11.8770 c6         1 6QZ      -0.089400
      8 C11        -20.8380   -39.5880   -11.3580 c6         1 6QZ       0.233500
      9 C12        -20.9980   -40.6690   -12.4570 c6         1 6QZ      -0.089400
     10 C13        -22.4620   -40.7460   -12.9580 c6         1 6QZ      -0.089400
     11 C14        -18.9170   -38.8700    -9.8520 ca         1 6QZ       0.434900
     12 C15        -19.2240   -38.0160    -7.7410 ca         1 6QZ       0.178900
     13 C16        -17.1220   -37.8630    -8.6240 ca         1 6QZ       0.147500
     14 C19        -15.3280   -38.0270   -10.0600 cc         1 6QZ      -0.174100
     15 C20        -16.4090   -39.1690   -12.0860 c6         1 6QZ       0.012500
     16 C21        -16.3230   -40.7190   -12.0370 c6         1 6QZ      -0.112900
     17 C22        -16.2760   -41.3070   -13.4680 c6         1 6QZ       0.154100
     18 C24        -15.2520   -38.6160   -12.9670 c6         1 6QZ      -0.112900
     19 O          -24.6220   -41.4530   -17.3240 o          1 6QZ      -0.566000
     20 N1         -24.3180   -39.4440   -14.0820 n3         1 6QZ      -0.755600
     21 C6         -25.3930   -39.9030   -13.1410 c6         1 6QZ       0.189800
     22 C5         -26.8350   -39.7300   -13.7010 c6         1 6QZ      -0.099400
     23 C4         -26.8740   -39.6420   -15.2460 c5         1 6QZ       0.123700
     24 N          -26.3980   -40.8700   -15.9350 n          1 6QZ      -0.407800
     25 C          -26.6610   -42.2470   -15.4740 c3         1 6QZ       0.097300
     26 N2         -19.4220   -39.5100   -10.9740 nu         1 6QZ      -0.922100
     27 C17        -17.5710   -38.4810    -9.7650 ca         1 6QZ      -0.253800
     28 C18        -16.4430   -38.5830   -10.6780 cd         1 6QZ      -0.098400
     29 N5         -15.7800   -37.5930    -8.7970 na         1 6QZ      -0.314400
     30 N4         -17.9400   -37.6160    -7.5860 nb         1 6QZ      -0.233000
     31 N3         -19.7550   -38.6330    -8.8230 nb         1 6QZ      -0.303000
     32 C23        -15.2670   -39.2930   -14.3580 c6         1 6QZ       0.154100
     33 O1         -15.1770   -40.7260   -14.2050 os         1 6QZ      -0.448000
     34 H1         -24.5780   -38.7510   -17.6090 hc         1 6QZ       0.075200
     35 H2         -26.3350   -38.9590   -17.8590 hc         1 6QZ       0.075200
     36 H3         -26.4130   -37.5740   -15.9120 hc         1 6QZ       0.060700
     37 H4         -23.8600   -37.8380   -15.4310 h1         1 6QZ       0.034200
     38 H5         -24.9950   -37.4280   -14.1370 h1         1 6QZ       0.034200
     39 H6         -22.2540   -39.0930   -14.3000 h1         1 6QZ       0.053700
     40 H7         -23.0790   -37.2930   -12.7690 hc         1 6QZ       0.049200
     41 H8         -23.4480   -38.4910   -11.5330 hc         1 6QZ       0.049200
     42 H9         -20.6710   -37.8630   -12.6900 hc         1 6QZ       0.047200
     43 H10        -21.2500   -37.4580   -11.0780 hc         1 6QZ       0.047200
     44 H11        -21.4570   -39.8860   -10.4950 h1         1 6QZ       0.086700
     45 H12        -20.6920   -41.6490   -12.0640 hc         1 6QZ       0.047200
     46 H13        -20.3330   -40.4490   -13.3040 hc         1 6QZ       0.047200
     47 H14        -23.1020   -41.0880   -12.1340 hc         1 6QZ       0.049200
     48 H15        -22.5420   -41.4990   -13.7530 hc         1 6QZ       0.049200
     49 H16        -19.8990   -37.8230    -6.9090 h5         1 6QZ       0.042100
     50 H17        -14.3010   -37.9070   -10.3950 h4         1 6QZ       0.217000
     51 H18        -17.3420   -38.8920   -12.5950 hc         1 6QZ       0.041700
     52 H19        -17.1780   -41.1390   -11.4920 hc         1 6QZ       0.054700
     53 H20        -15.4240   -41.0260   -11.4860 hc         1 6QZ       0.054700
     54 H21        -17.2180   -41.1020   -13.9980 h1         1 6QZ       0.043450
     55 H22        -16.1390   -42.3970   -13.4220 h1         1 6QZ       0.043450
     56 H23        -14.2790   -38.8080   -12.4970 hc         1 6QZ       0.054700
     57 H24        -15.3460   -37.5280   -13.0800 hc         1 6QZ       0.054700
     58 H26        -25.2450   -40.9690   -12.9170 h1         1 6QZ       0.035700
     59 H27        -25.3420   -39.3710   -12.1810 h1         1 6QZ       0.035700
     60 H28        -27.2560   -38.8000   -13.2970 hc         1 6QZ       0.048700
     61 H29        -27.4840   -40.5350   -13.3350 hc         1 6QZ       0.048700
     62 H30        -27.9060   -39.4310   -15.5580 h1         1 6QZ       0.049700
     63 H31        -27.6320   -42.2930   -14.9660 h1         1 6QZ       0.039700
     64 H32        -26.6780   -42.9330   -16.3300 h1         1 6QZ       0.039700
     65 H33        -25.8720   -42.5590   -14.7770 h1         1 6QZ       0.039700
     66 H34        -18.7260   -39.6790   -11.6920 hn         1 6QZ       0.489000
     67 H35        -15.2040   -37.1380    -8.0960 hn         1 6QZ       0.363000
     68 H36        -14.4130   -38.9430   -14.9560 h1         1 6QZ       0.043450
     69 H37        -16.1910   -39.0400   -14.9000 h1         1 6QZ       0.043450
@<TRIPOS>BOND
     1     1     2 1   
     2     1    19 2   
     3     1    24 1   
     4     2     3 1   
     5     2    34 1   
     6     2    35 1   
     7     3     4 1   
     8     3    23 1   
     9     3    36 1   
    10     4    20 1   
    11     4    37 1   
    12     4    38 1   
    13     5     6 1   
    14     5    10 1   
    15     5    20 1   
    16     5    39 1   
    17     6     7 1   
    18     6    40 1   
    19     6    41 1   
    20     7     8 1   
    21     7    42 1   
    22     7    43 1   
    23     8     9 1   
    24     8    26 1   
    25     8    44 1   
    26     9    10 1   
    27     9    45 1   
    28     9    46 1   
    29    10    47 1   
    30    10    48 1   
    31    11    26 1   
    32    11    27 ar  
    33    11    31 ar  
    34    12    30 ar  
    35    12    31 ar  
    36    12    49 1   
    37    13    27 ar  
    38    13    29 1   
    39    13    30 ar  
    40    14    28 2   
    41    14    29 1   
    42    14    50 1   
    43    15    16 1   
    44    15    18 1   
    45    15    28 1   
    46    15    51 1   
    47    16    17 1   
    48    16    52 1   
    49    16    53 1   
    50    17    33 1   
    51    17    54 1   
    52    17    55 1   
    53    18    32 1   
    54    18    56 1   
    55    18    57 1   
    56    20    21 1   
    57    21    22 1   
    58    21    58 1   
    59    21    59 1   
    60    22    23 1   
    61    22    60 1   
    62    22    61 1   
    63    23    24 1   
    64    23    62 1   
    65    24    25 1   
    66    25    63 1   
    67    25    64 1   
    68    25    65 1   
    69    26    66 1   
    70    27    28 1   
    71    29    67 1   
    72    32    33 1   
    73    32    68 1   
    74    32    69 1   
@<TRIPOS>SUBSTRUCTURE
     1 6QZ         1 TEMP              0 ****  ****    0 ROOT
