@<TRIPOS>MOLECULE
6R0
   69    74     1     0     0
SMALL
abcg2


@<TRIPOS>ATOM
      1 C1           7.5150    -0.6100     1.0860 c          1 6R0       0.560000
      2 C2           6.1430    -1.2310     1.2390 c5         1 6R0      -0.162400
      3 C3           5.6590    -1.3790    -0.1980 c5         1 6R0      -0.070700
      4 C7           4.1540    -1.4050    -0.4080 c6         1 6R0       0.185800
      5 C8           2.1070    -0.1530    -0.0470 c6         1 6R0       0.190500
      6 C9           1.3450    -0.4920    -1.3340 c6         1 6R0      -0.086900
      7 C10         -0.1510    -0.6260    -1.0690 c6         1 6R0      -0.090900
      8 C11         -0.7150     0.6450    -0.4410 c6         1 6R0       0.234500
      9 C12          0.0510     0.9950     0.8350 c6         1 6R0      -0.090900
     10 C13          1.5450     1.1310     0.5610 c6         1 6R0      -0.086900
     11 C14         -3.0110     1.4760    -0.0390 ca         1 6R0       0.431900
     12 C15         -3.4430     3.7310    -0.0510 ca         1 6R0       0.178900
     13 C16         -5.1320     2.4090     0.4710 ca         1 6R0       0.148500
     14 C19         -6.4370     0.6580     0.8770 cc         1 6R0      -0.172100
     15 C20         -4.8870    -1.3320     0.4390 c6         1 6R0       0.013500
     16 C21         -4.7020    -1.7530    -1.0250 c6         1 6R0      -0.113400
     17 C22         -4.4050    -3.2410    -1.1200 c6         1 6R0       0.154600
     18 C24         -5.9340    -2.2450     1.0750 c6         1 6R0      -0.113400
     19 O            8.3860    -0.5420     1.9400 o          1 6R0      -0.553000
     20 N1           3.5570    -0.1090    -0.1720 n3         1 6R0      -0.735600
     21 C6           4.0870     0.8610    -1.1110 c6         1 6R0       0.175800
     22 C5           5.5600     1.0930    -0.8140 c6         1 6R0      -0.098400
     23 C4           6.3590    -0.2090    -0.9030 c5         1 6R0       0.110700
     24 N            7.6120    -0.1300    -0.1700 n          1 6R0      -0.412800
     25 C            8.7160     0.6670    -0.6380 c3         1 6R0       0.095300
     26 N2          -2.1340     0.4690    -0.2040 nu         1 6R0      -0.920100
     27 C17         -4.3640     1.2490     0.3040 ca         1 6R0      -0.253800
     28 C18         -5.2200     0.1240     0.5610 cd         1 6R0      -0.099400
     29 N5          -6.3790     2.0290     0.8230 na         1 6R0      -0.315400
     30 N4          -4.7090     3.6670     0.3040 nb         1 6R0      -0.230000
     31 N3          -2.5850     2.7270    -0.2240 nb         1 6R0      -0.301000
     32 C23         -5.5640    -3.7040     0.8610 c6         1 6R0       0.154600
     33 O1          -5.4080    -4.0190    -0.5050 os         1 6R0      -0.448000
     34 H1           6.1920    -2.1690     1.7920 hc         1 6R0       0.081700
     35 H2           5.5050    -0.5460     1.8070 hc         1 6R0       0.081700
     36 H3           6.0680    -2.3090    -0.6040 hc         1 6R0       0.059700
     37 H4           3.9560    -1.7730    -1.4290 h1         1 6R0       0.034700
     38 H5           3.7110    -2.1370     0.2730 h1         1 6R0       0.034700
     39 H6           1.8990    -0.9540     0.6740 h1         1 6R0       0.054700
     40 H7           1.5120     0.2920    -2.0820 hc         1 6R0       0.048450
     41 H8           1.7170    -1.4230    -1.7700 hc         1 6R0       0.048450
     42 H9          -0.6830    -0.8510    -1.9970 hc         1 6R0       0.047950
     43 H10         -0.3230    -1.4710    -0.3910 hc         1 6R0       0.047950
     44 H11         -0.5970     1.4640    -1.1550 h1         1 6R0       0.084700
     45 H12         -0.3400     1.9240     1.2570 hc         1 6R0       0.047950
     46 H13         -0.1220     0.2090     1.5790 hc         1 6R0       0.047950
     47 H14          2.0810     1.3660     1.4830 hc         1 6R0       0.048450
     48 H15          1.6980     1.9750    -0.1200 hc         1 6R0       0.048450
     49 H16         -3.0390     4.7240    -0.2170 h5         1 6R0       0.043100
     50 H17         -7.3590     0.1680     1.1410 h4         1 6R0       0.217000
     51 H18         -3.9430    -1.5260     0.9690 hc         1 6R0       0.040700
     52 H19         -5.6140    -1.5190    -1.5820 hc         1 6R0       0.054950
     53 H20         -3.8920    -1.1940    -1.5000 hc         1 6R0       0.054950
     54 H21         -4.3510    -3.5570    -2.1630 h1         1 6R0       0.042700
     55 H22         -3.4250    -3.4490    -0.6630 h1         1 6R0       0.042700
     56 H23         -6.0180    -2.0490     2.1470 hc         1 6R0       0.054950
     57 H24         -6.9160    -2.0510     0.6340 hc         1 6R0       0.054950
     58 H26          3.9610     0.5410    -2.1600 h1         1 6R0       0.035200
     59 H27          3.5540     1.8060    -1.0090 h1         1 6R0       0.035200
     60 H28          5.9730     1.8380    -1.4980 hc         1 6R0       0.055200
     61 H29          5.6440     1.5040     0.1970 hc         1 6R0       0.055200
     62 H30          6.5580    -0.4470    -1.9520 h1         1 6R0       0.059700
     63 H31          9.6310     0.3640    -0.1350 h1         1 6R0       0.040700
     64 H32          8.8460     0.5150    -1.7090 h1         1 6R0       0.040700
     65 H33          8.5620     1.7340    -0.4590 h1         1 6R0       0.040700
     66 H34         -2.4180    -0.4410     0.1200 hn         1 6R0       0.488000
     67 H35         -7.1450     2.6540     1.0170 hn         1 6R0       0.363000
     68 H36         -4.6380    -3.9300     1.4130 h1         1 6R0       0.042700
     69 H37         -6.3440    -4.3590     1.2520 h1         1 6R0       0.042700
@<TRIPOS>BOND
     1     1     2 1   
     2     1    19 2   
     3     1    24 1   
     4     2     3 1   
     5     2    34 1   
     6     2    35 1   
     7     3     4 1   
     8     3    23 1   
     9     3    36 1   
    10     4    20 1   
    11     4    37 1   
    12     4    38 1   
    13     5     6 1   
    14     5    10 1   
    15     5    20 1   
    16     5    39 1   
    17     6     7 1   
    18     6    40 1   
    19     6    41 1   
    20     7     8 1   
    21     7    42 1   
    22     7    43 1   
    23     8     9 1   
    24     8    26 1   
    25     8    44 1   
    26     9    10 1   
    27     9    45 1   
    28     9    46 1   
    29    10    47 1   
    30    10    48 1   
    31    11    26 1   
    32    11    27 ar  
    33    11    31 ar  
    34    12    30 ar  
    35    12    31 ar  
    36    12    49 1   
    37    13    27 ar  
    38    13    29 1   
    39    13    30 ar  
    40    14    28 2   
    41    14    29 1   
    42    14    50 1   
    43    15    16 1   
    44    15    18 1   
    45    15    28 1   
    46    15    51 1   
    47    16    17 1   
    48    16    52 1   
    49    16    53 1   
    50    17    33 1   
    51    17    54 1   
    52    17    55 1   
    53    18    32 1   
    54    18    56 1   
    55    18    57 1   
    56    20    21 1   
    57    21    22 1   
    58    21    58 1   
    59    21    59 1   
    60    22    23 1   
    61    22    60 1   
    62    22    61 1   
    63    23    24 1   
    64    23    62 1   
    65    24    25 1   
    66    25    63 1   
    67    25    64 1   
    68    25    65 1   
    69    26    66 1   
    70    27    28 1   
    71    29    67 1   
    72    32    33 1   
    73    32    68 1   
    74    32    69 1   
@<TRIPOS>SUBSTRUCTURE
     1 6R0         1 TEMP              0 ****  ****    0 ROOT
