@<TRIPOS>MOLECULE
6R0
   69    74     1     0     0
SMALL
No Charge or Current Charge


@<TRIPOS>ATOM
      1 C1           7.5240    -0.9600     1.1510 c          1 6R0       0.560000
      2 C2           6.0530    -1.3110     1.3510 c5         1 6R0      -0.162400
      3 C3           5.5430    -1.4270    -0.1140 c5         1 6R0      -0.070700
      4 C7           4.0070    -1.4120    -0.3280 c6         1 6R0       0.185800
      5 C8           1.9310    -0.0840    -0.0610 c6         1 6R0       0.190500
      6 C9           1.3070    -0.2960    -1.4760 c6         1 6R0      -0.086900
      7 C10         -0.2390    -0.3820    -1.3980 c6         1 6R0      -0.090900
      8 C11         -0.8440     0.8740    -0.7210 c6         1 6R0       0.234500
      9 C12         -0.2240     1.0850     0.6860 c6         1 6R0      -0.090900
     10 C13          1.3210     1.1830     0.6060 c6         1 6R0      -0.086900
     11 C14         -3.2190     1.6910    -0.3130 ca         1 6R0       0.431900
     12 C15         -3.7870     3.9150    -0.2280 ca         1 6R0       0.178900
     13 C16         -5.3750     2.4140     0.4400 ca         1 6R0       0.148500
     14 C19         -6.4560     0.4450     0.9530 cc         1 6R0      -0.172100
     15 C20         -4.6380    -1.2810     0.4130 c6         1 6R0       0.013500
     16 C21         -4.6980    -1.8000    -1.0490 c6         1 6R0      -0.113400
     17 C22         -4.1640    -3.2510    -1.1340 c6         1 6R0       0.154600
     18 C24         -5.3680    -2.2870     1.3480 c6         1 6R0      -0.113400
     19 O            8.5100    -1.3950     1.7310 o          1 6R0      -0.553000
     20 N1           3.4280    -0.0650    -0.0440 n3         1 6R0      -0.735600
     21 C6           4.0470     0.9900    -0.9040 c6         1 6R0       0.175800
     22 C5           5.5560     1.1230    -0.6090 c6         1 6R0      -0.098400
     23 C4           6.2840    -0.2300    -0.7910 c5         1 6R0       0.110700
     24 N            7.5570    -0.2330    -0.0420 n          1 6R0      -0.412800
     25 C            8.8390     0.2410    -0.5960 c3         1 6R0       0.095300
     26 N2          -2.2980     0.6970    -0.6080 nu         1 6R0      -0.920100
     27 C17         -4.4990     1.3910     0.1780 ca         1 6R0      -0.253800
     28 C18         -5.1750     0.1450     0.5040 cd         1 6R0      -0.099400
     29 N5          -6.5480     1.8510     0.9020 na         1 6R0      -0.315400
     30 N4          -5.0390     3.7010     0.2430 nb         1 6R0      -0.230000
     31 N3          -2.8580     2.9740    -0.5180 nb         1 6R0      -0.301000
     32 C23         -4.7900    -3.7100     1.1600 c6         1 6R0       0.154600
     33 O1          -4.8980    -4.1010    -0.2260 os         1 6R0      -0.448000
     34 H1           5.9290    -2.2060     1.9690 hc         1 6R0       0.081700
     35 H2           5.5590    -0.4600     1.8320 hc         1 6R0       0.081700
     36 H3           5.8860    -2.3750    -0.5460 hc         1 6R0       0.059700
     37 H4           3.8020    -1.7020    -1.3690 h1         1 6R0       0.034700
     38 H5           3.5500    -2.1760     0.3170 h1         1 6R0       0.034700
     39 H6           1.6040    -0.9340     0.5570 h1         1 6R0       0.054700
     40 H7           1.5870     0.5280    -2.1450 hc         1 6R0       0.048450
     41 H8           1.6900    -1.2170    -1.9340 hc         1 6R0       0.048450
     42 H9          -0.6520    -0.4950    -2.4100 hc         1 6R0       0.047950
     43 H10         -0.5250    -1.2850    -0.8410 hc         1 6R0       0.047950
     44 H11         -0.6080     1.7470    -1.3510 h1         1 6R0       0.084700
     45 H12         -0.6240     2.0000     1.1420 hc         1 6R0       0.047950
     46 H13         -0.5060     0.2560     1.3500 hc         1 6R0       0.047950
     47 H14          1.7350     1.3050     1.6150 hc         1 6R0       0.048450
     48 H15          1.5860     2.0880     0.0450 hc         1 6R0       0.048450
     49 H16         -3.4990     4.9520    -0.3920 h5         1 6R0       0.043100
     50 H17         -7.2710    -0.1900     1.2910 h4         1 6R0       0.217000
     51 H18         -3.5870    -1.2730     0.7320 hc         1 6R0       0.040700
     52 H19         -5.7340    -1.7700    -1.4140 hc         1 6R0       0.054950
     53 H20         -4.1160    -1.1520    -1.7180 hc         1 6R0       0.054950
     54 H21         -4.2810    -3.6350    -2.1580 h1         1 6R0       0.042700
     55 H22         -3.0950    -3.2810    -0.8780 h1         1 6R0       0.042700
     56 H23         -5.2630    -1.9770     2.3960 hc         1 6R0       0.054950
     57 H24         -6.4430    -2.3150     1.1260 hc         1 6R0       0.054950
     58 H26          3.9110     0.7510    -1.9700 h1         1 6R0       0.035200
     59 H27          3.5860     1.9710    -0.7300 h1         1 6R0       0.035200
     60 H28          6.0040     1.8800    -1.2650 hc         1 6R0       0.055200
     61 H29          5.6820     1.4900     0.4180 hc         1 6R0       0.055200
     62 H30          6.4320    -0.4170    -1.8630 h1         1 6R0       0.059700
     63 H31          9.4480    -0.6170    -0.9080 h1         1 6R0       0.040700
     64 H32          8.6540     0.8860    -1.4640 h1         1 6R0       0.040700
     65 H33          9.3830     0.8150     0.1650 h1         1 6R0       0.040700
     66 H34         -2.6500    -0.2420    -0.4540 hn         1 6R0       0.488000
     67 H35         -7.3640     2.3930     1.1670 hn         1 6R0       0.363000
     68 H36         -3.7340    -3.7400     1.4670 h1         1 6R0       0.042700
     69 H37         -5.3480    -4.4270     1.7790 h1         1 6R0       0.042700
@<TRIPOS>BOND
     1     1     2 1   
     2     1    19 2   
     3     1    24 1   
     4     2     3 1   
     5     2    34 1   
     6     2    35 1   
     7     3     4 1   
     8     3    23 1   
     9     3    36 1   
    10     4    20 1   
    11     4    37 1   
    12     4    38 1   
    13     5     6 1   
    14     5    10 1   
    15     5    20 1   
    16     5    39 1   
    17     6     7 1   
    18     6    40 1   
    19     6    41 1   
    20     7     8 1   
    21     7    42 1   
    22     7    43 1   
    23     8     9 1   
    24     8    26 1   
    25     8    44 1   
    26     9    10 1   
    27     9    45 1   
    28     9    46 1   
    29    10    47 1   
    30    10    48 1   
    31    11    26 1   
    32    11    27 ar  
    33    11    31 ar  
    34    12    30 ar  
    35    12    31 ar  
    36    12    49 1   
    37    13    27 ar  
    38    13    29 1   
    39    13    30 ar  
    40    14    28 2   
    41    14    29 1   
    42    14    50 1   
    43    15    16 1   
    44    15    18 1   
    45    15    28 1   
    46    15    51 1   
    47    16    17 1   
    48    16    52 1   
    49    16    53 1   
    50    17    33 1   
    51    17    54 1   
    52    17    55 1   
    53    18    32 1   
    54    18    56 1   
    55    18    57 1   
    56    20    21 1   
    57    21    22 1   
    58    21    58 1   
    59    21    59 1   
    60    22    23 1   
    61    22    60 1   
    62    22    61 1   
    63    23    24 1   
    64    23    62 1   
    65    24    25 1   
    66    25    63 1   
    67    25    64 1   
    68    25    65 1   
    69    26    66 1   
    70    27    28 1   
    71    29    67 1   
    72    32    33 1   
    73    32    68 1   
    74    32    69 1   
@<TRIPOS>SUBSTRUCTURE
     1 6R0         1 TEMP              0 ****  ****    0 ROOT
