@<TRIPOS>MOLECULE
6R1
   59    63     1     0     0
SMALL
abcg2


@<TRIPOS>ATOM
      1 C1           5.1300    -0.8250     0.5470 cc         1 6R1      -0.174100
      2 C3           3.7420    -2.4820     0.0410 ca         1 6R1       0.148500
      3 N6           1.1480    -2.6530    -0.5100 nb         1 6R1      -0.301000
      4 C7           1.6260    -1.4420    -0.2160 ca         1 6R1       0.432900
      5 C8           3.0050    -1.2910     0.0580 ca         1 6R1      -0.254800
      6 C9           3.9140    -0.2260     0.3780 cd         1 6R1      -0.099400
      7 C10          3.6260     1.2430     0.4330 c6         1 6R1       0.013500
      8 C11          3.4060     1.8270    -0.9690 c6         1 6R1      -0.112400
      9 C12          3.1690     3.3270    -0.8980 c6         1 6R1       0.154100
     10 C14          4.3990     3.5330     1.0830 c6         1 6R1       0.154100
     11 C15          4.7220     2.0480     1.1290 c6         1 6R1      -0.112400
     12 C19         -2.8890    -1.0850     0.6110 c6         1 6R1      -0.073400
     13 C20         -3.5000     0.2340     0.1250 c6         1 6R1       0.186500
     14 C21         -2.7310     0.7160    -1.1100 c6         1 6R1      -0.073400
     15 C22         -1.2280     0.8110    -0.8690 c6         1 6R1      -0.091900
     16 N23         -4.9270     0.0730    -0.1680 n3         1 6R1      -0.715600
     17 C24         -5.5440     1.2840    -0.6910 c6         1 6R1       0.125800
     18 C27         -7.1510    -0.5640     0.6340 c6         1 6R1       0.151600
     19 N2           5.0220    -2.1790     0.3450 na         1 6R1      -0.315400
     20 N4           3.2680    -3.7020    -0.2350 nb         1 6R1      -0.232000
     21 C5           1.9800    -3.6920    -0.5080 ca         1 6R1       0.178900
     22 O13          4.2190     3.9980    -0.2370 os         1 6R1      -0.448000
     23 N16          0.7730    -0.4010    -0.2120 nu         1 6R1      -0.921100
     24 C17         -0.6590    -0.5200    -0.4040 c6         1 6R1       0.234500
     25 C18         -1.3890    -0.9740     0.8560 c6         1 6R1      -0.091900
     26 C25         -7.0090     1.0490    -1.0080 c6         1 6R1       0.151600
     27 O26         -7.7330     0.6100     0.1170 os         1 6R1      -0.447000
     28 C28         -5.6910    -0.3660     0.9910 c6         1 6R1       0.125800
     29 H1           6.0840    -0.3890     0.7950 h4         1 6R1       0.217000
     30 H2           2.7060     1.4000     1.0150 hc         1 6R1       0.040700
     31 H3           4.2880     1.6210    -1.5830 hc         1 6R1       0.054950
     32 H4           2.5570     1.3530    -1.4690 hc         1 6R1       0.054950
     33 H5           3.1010     3.7510    -1.9010 h1         1 6R1       0.042950
     34 H6           2.2100     3.5260    -0.3940 h1         1 6R1       0.042950
     35 H7           3.4980     3.7310     1.6830 h1         1 6R1       0.042950
     36 H8           5.2130     4.1160     1.5160 h1         1 6R1       0.042950
     37 H9           4.8270     1.7360     2.1710 hc         1 6R1       0.054950
     38 H10          5.6850     1.8720     0.6410 hc         1 6R1       0.054950
     39 H11         -3.3610    -1.4170     1.5360 hc         1 6R1       0.050700
     40 H12         -3.0850    -1.8580    -0.1400 hc         1 6R1       0.050700
     41 H13         -3.3590     0.9870     0.9240 h1         1 6R1       0.020700
     42 H14         -2.9290     0.0250    -1.9370 hc         1 6R1       0.050700
     43 H15         -3.0790     1.6990    -1.4290 hc         1 6R1       0.050700
     44 H16         -0.7290     1.1320    -1.7860 hc         1 6R1       0.046950
     45 H17         -1.0280     1.5780    -0.1110 hc         1 6R1       0.046950
     46 H19         -5.4480     2.1270     0.0170 h1         1 6R1       0.040450
     47 H20         -5.0620     1.5860    -1.6200 h1         1 6R1       0.040450
     48 H21         -7.7130    -0.8460     1.5260 h1         1 6R1       0.050200
     49 H22         -7.2370    -1.3860    -0.0920 h1         1 6R1       0.050200
     50 H23          5.7770    -2.8410     0.4140 hn         1 6R1       0.363000
     51 H24          1.5320    -4.6500    -0.7550 h5         1 6R1       0.043100
     52 H25          1.1000     0.4600     0.1950 hn         1 6R1       0.488000
     53 H26         -0.8240    -1.2620    -1.1890 h1         1 6R1       0.087700
     54 H27         -1.1960    -0.2520     1.6580 hc         1 6R1       0.046950
     55 H28         -0.9970    -1.9360     1.1890 hc         1 6R1       0.046950
     56 H29         -7.4640     1.9800    -1.3500 h1         1 6R1       0.050200
     57 H30         -7.0870     0.3160    -1.8230 h1         1 6R1       0.050200
     58 H31         -5.3190    -1.3240     1.3540 h1         1 6R1       0.040450
     59 H32         -5.6100     0.3530     1.8260 h1         1 6R1       0.040450
@<TRIPOS>BOND
     1     1     6 2   
     2     1    19 1   
     3     1    29 1   
     4     2     5 ar  
     5     2    19 1   
     6     2    20 ar  
     7     3     4 ar  
     8     3    21 ar  
     9     4     5 ar  
    10     4    23 1   
    11     5     6 1   
    12     6     7 1   
    13     7     8 1   
    14     7    11 1   
    15     7    30 1   
    16     8     9 1   
    17     8    31 1   
    18     8    32 1   
    19     9    22 1   
    20     9    33 1   
    21     9    34 1   
    22    10    11 1   
    23    10    22 1   
    24    10    35 1   
    25    10    36 1   
    26    11    37 1   
    27    11    38 1   
    28    12    13 1   
    29    12    25 1   
    30    12    39 1   
    31    12    40 1   
    32    13    14 1   
    33    13    16 1   
    34    13    41 1   
    35    14    15 1   
    36    14    42 1   
    37    14    43 1   
    38    15    24 1   
    39    15    44 1   
    40    15    45 1   
    41    16    17 1   
    42    16    28 1   
    43    17    26 1   
    44    17    46 1   
    45    17    47 1   
    46    18    27 1   
    47    18    28 1   
    48    18    48 1   
    49    18    49 1   
    50    19    50 1   
    51    20    21 ar  
    52    21    51 1   
    53    23    24 1   
    54    23    52 1   
    55    24    25 1   
    56    24    53 1   
    57    25    54 1   
    58    25    55 1   
    59    26    27 1   
    60    26    56 1   
    61    26    57 1   
    62    28    58 1   
    63    28    59 1   
@<TRIPOS>SUBSTRUCTURE
     1 6R1         1 TEMP              0 ****  ****    0 ROOT
