@<TRIPOS>MOLECULE
6R1
   59    63     1     0     0
SMALL
No Charge or Current Charge


@<TRIPOS>ATOM
      1 C1           5.1060    -0.6840     0.7800 cc         1 6R1      -0.174100
      2 C3           3.9320    -2.5560     0.1280 ca         1 6R1       0.148500
      3 N6           1.3750    -2.9280    -0.8140 nb         1 6R1      -0.301000
      4 C7           1.7940    -1.6830    -0.5110 ca         1 6R1       0.432900
      5 C8           3.0960    -1.4790    -0.0270 ca         1 6R1      -0.254800
      6 C9           3.8310    -0.2940     0.3870 cd         1 6R1      -0.099400
      7 C10          3.3550     1.1550     0.4280 c6         1 6R1       0.013500
      8 C11          3.4090     1.7940    -0.9860 c6         1 6R1      -0.112400
      9 C12          2.9370     3.2670    -0.9370 c6         1 6R1       0.154100
     10 C14          3.6260     3.5040     1.3730 c6         1 6R1       0.154100
     11 C15          4.1450     2.0470     1.4280 c6         1 6R1      -0.112400
     12 C19         -2.7010    -1.0700     0.5480 c6         1 6R1      -0.073400
     13 C20         -3.3250     0.2500    -0.0190 c6         1 6R1       0.186500
     14 C21         -2.6630     0.5670    -1.4020 c6         1 6R1      -0.073400
     15 C22         -1.1150     0.5940    -1.3350 c6         1 6R1      -0.091900
     16 N23         -4.8280     0.1670    -0.1180 n3         1 6R1      -0.715600
     17 C24         -5.4470     1.4180    -0.6860 c6         1 6R1       0.125800
     18 C27         -7.0380    -0.1920     1.1020 c6         1 6R1       0.151600
     19 N2           5.1370    -2.0830     0.6090 na         1 6R1      -0.315400
     20 N4           3.5360    -3.8070    -0.1680 nb         1 6R1      -0.232000
     21 C5           2.2680    -3.9280    -0.6260 ca         1 6R1       0.178900
     22 O13          3.7240     4.0060     0.0230 os         1 6R1      -0.448000
     23 N16          0.9110    -0.6300    -0.7000 nu         1 6R1      -0.921100
     24 C17         -0.5510    -0.7380    -0.7950 c6         1 6R1       0.234500
     25 C18         -1.1530    -1.0300     0.5980 c6         1 6R1      -0.091900
     26 C25         -7.0020     1.3490    -0.7340 c6         1 6R1       0.151600
     27 O26         -7.5350     1.0580     0.5760 os         1 6R1      -0.447000
     28 C28         -5.4840    -0.1630     1.1970 c6         1 6R1       0.125800
     29 H1           5.9540    -0.1150     1.1510 h4         1 6R1       0.217000
     30 H2           2.3110     1.1640     0.7690 hc         1 6R1       0.040700
     31 H3           4.4350     1.7520    -1.3750 hc         1 6R1       0.054950
     32 H4           2.7870     1.2290    -1.6930 hc         1 6R1       0.054950
     33 H5           3.0510     3.7320    -1.9270 h1         1 6R1       0.042950
     34 H6           1.8750     3.3200    -0.6540 h1         1 6R1       0.042950
     35 H7           2.5790     3.5520     1.7060 h1         1 6R1       0.042950
     36 H8           4.2270     4.1420     2.0370 h1         1 6R1       0.042950
     37 H9           4.0470     1.6540     2.4490 hc         1 6R1       0.054950
     38 H10          5.2160     2.0490     1.1850 hc         1 6R1       0.054950
     39 H11         -3.0520    -1.2580     1.5700 hc         1 6R1       0.050700
     40 H12         -3.0290    -1.9240    -0.0600 hc         1 6R1       0.050700
     41 H13         -3.0580     1.0650     0.6700 h1         1 6R1       0.020700
     42 H14         -2.9870    -0.1740    -2.1460 hc         1 6R1       0.050700
     43 H15         -2.9860     1.5470    -1.7730 hc         1 6R1       0.050700
     44 H16         -0.7090     0.7920    -2.3370 hc         1 6R1       0.046950
     45 H17         -0.7930     1.4280    -0.6960 hc         1 6R1       0.046950
     46 H19         -5.1520     2.2940    -0.0900 h1         1 6R1       0.040450
     47 H20         -5.1080     1.5950    -1.7150 h1         1 6R1       0.040450
     48 H21         -7.4710    -0.3600     2.0990 h1         1 6R1       0.050200
     49 H22         -7.3590    -1.0150     0.4470 h1         1 6R1       0.050200
     50 H23          5.9330    -2.6790     0.8090 hn         1 6R1       0.363000
     51 H24          1.9310    -4.9350    -0.8700 h5         1 6R1       0.043100
     52 H25          1.3070     0.2760    -0.4760 hn         1 6R1       0.488000
     53 H26         -0.8380    -1.5420    -1.4930 h1         1 6R1       0.087700
     54 H27         -0.8300    -0.2640     1.3160 hc         1 6R1       0.046950
     55 H28         -0.7770    -1.9900     0.9760 hc         1 6R1       0.046950
     56 H29         -7.4080     2.3100    -1.0820 h1         1 6R1       0.050200
     57 H30         -7.3220     0.5680    -1.4390 h1         1 6R1       0.050200
     58 H31         -5.1720    -1.1520     1.5570 h1         1 6R1       0.040450
     59 H32         -5.1920     0.5700     1.9640 h1         1 6R1       0.040450
@<TRIPOS>BOND
     1     1     6 2   
     2     1    19 1   
     3     1    29 1   
     4     2     5 ar  
     5     2    19 1   
     6     2    20 ar  
     7     3     4 ar  
     8     3    21 ar  
     9     4     5 ar  
    10     4    23 1   
    11     5     6 1   
    12     6     7 1   
    13     7     8 1   
    14     7    11 1   
    15     7    30 1   
    16     8     9 1   
    17     8    31 1   
    18     8    32 1   
    19     9    22 1   
    20     9    33 1   
    21     9    34 1   
    22    10    11 1   
    23    10    22 1   
    24    10    35 1   
    25    10    36 1   
    26    11    37 1   
    27    11    38 1   
    28    12    13 1   
    29    12    25 1   
    30    12    39 1   
    31    12    40 1   
    32    13    14 1   
    33    13    16 1   
    34    13    41 1   
    35    14    15 1   
    36    14    42 1   
    37    14    43 1   
    38    15    24 1   
    39    15    44 1   
    40    15    45 1   
    41    16    17 1   
    42    16    28 1   
    43    17    26 1   
    44    17    46 1   
    45    17    47 1   
    46    18    27 1   
    47    18    28 1   
    48    18    48 1   
    49    18    49 1   
    50    19    50 1   
    51    20    21 ar  
    52    21    51 1   
    53    23    24 1   
    54    23    52 1   
    55    24    25 1   
    56    24    53 1   
    57    25    54 1   
    58    25    55 1   
    59    26    27 1   
    60    26    56 1   
    61    26    57 1   
    62    28    58 1   
    63    28    59 1   
@<TRIPOS>SUBSTRUCTURE
     1 6R1         1 TEMP              0 ****  ****    0 ROOT
