@<TRIPOS>MOLECULE
6R3
   14    13     1     0     0
SMALL
abcg2


@<TRIPOS>ATOM
      1 C1           1.3790     1.6170    -0.0570 c2         1 6R3      -0.387000
      2 C2           1.1230     0.3020     0.0500 ce         1 6R3       0.030800
      3 C3          -0.2700    -0.2410     0.0130 c          1 6R3       0.567500
      4 C4          -1.4220     0.6880     0.0360 ce         1 6R3      -0.304200
      5 C5          -2.6730     0.2350    -0.0170 c2         1 6R3      -0.230000
      6 O7          -0.4310    -1.4460    -0.0360 o          1 6R3      -0.535100
      7 N6           2.0890    -0.6610     0.2190 nv         1 6R3      -0.938000
      8 H1           2.3970     1.9850    -0.0660 ha         1 6R3       0.171000
      9 H2           0.6030     2.3590    -0.1310 ha         1 6R3       0.171000
     10 H4          -1.2490     1.7510     0.1100 ha         1 6R3       0.188000
     11 H5          -2.9020    -0.8200    -0.0860 ha         1 6R3       0.174500
     12 H6          -3.5110     0.9170     0.0090 ha         1 6R3       0.174500
     13 H7           3.0240    -0.3980    -0.0470 hn         1 6R3       0.457500
     14 H8           1.8410    -1.5860    -0.0910 hn         1 6R3       0.457500
@<TRIPOS>BOND
     1     1     2 2   
     2     1     8 1   
     3     1     9 1   
     4     2     3 1   
     5     2     7 1   
     6     3     4 1   
     7     3     6 2   
     8     4     5 2   
     9     4    10 1   
    10     5    11 1   
    11     5    12 1   
    12     7    13 1   
    13     7    14 1   
@<TRIPOS>SUBSTRUCTURE
     1 6R3         1 TEMP              0 ****  ****    0 ROOT
