@<TRIPOS>MOLECULE
6R3
   14    13     1     0     0
SMALL
No Charge or Current Charge


@<TRIPOS>ATOM
      1 C1           1.4370     1.6200    -0.0100 c2         1 6R3      -0.387000
      2 C2           1.1230     0.3070     0.0150 ce         1 6R3       0.030800
      3 C3          -0.3090    -0.2850     0.0140 c          1 6R3       0.567500
      4 C4          -1.4880     0.6500    -0.0050 ce         1 6R3      -0.304200
      5 C5          -2.7830     0.2420    -0.0110 c2         1 6R3      -0.230000
      6 O7          -0.4940    -1.5010     0.0270 o          1 6R3      -0.535100
      7 N6           2.1720    -0.6200     0.0440 nv         1 6R3      -0.938000
      8 H1           2.4740     1.9550    -0.0060 ha         1 6R3       0.171000
      9 H2           0.6980     2.4180    -0.0350 ha         1 6R3       0.171000
     10 H4          -1.2730     1.7130    -0.0130 ha         1 6R3       0.188000
     11 H5          -3.0600    -0.8140    -0.0030 ha         1 6R3       0.174500
     12 H6          -3.6080     0.9560    -0.0250 ha         1 6R3       0.174500
     13 H7           3.1400    -0.3210    -0.0690 hn         1 6R3       0.457500
     14 H8           1.9680    -1.6190    -0.0170 hn         1 6R3       0.457500
@<TRIPOS>BOND
     1     1     2 2   
     2     1     8 1   
     3     1     9 1   
     4     2     3 1   
     5     2     7 1   
     6     3     4 1   
     7     3     6 2   
     8     4     5 2   
     9     4    10 1   
    10     5    11 1   
    11     5    12 1   
    12     7    13 1   
    13     7    14 1   
@<TRIPOS>SUBSTRUCTURE
     1 6R3         1 TEMP              0 ****  ****    0 ROOT
