@<TRIPOS>MOLECULE
6R4
   45    46     1     0     0
SMALL
No Charge or Current Charge


@<TRIPOS>ATOM
      1 O01         68.8440   -80.8080   -13.1600 o          1 6R4      -0.528100
      2 C02         69.6430   -81.0200   -14.0600 c          1 6R4       0.721100
      3 N03         69.6980   -82.2150   -14.6970 ns         1 6R4      -0.613300
      4 S04         68.6680   -83.5080   -14.5060 sy         1 6R4       1.221300
      5 C05         66.9960   -82.8730   -14.8280 ca         1 6R4      -0.241500
      6 C06         65.9680   -83.2380   -13.9280 ca         1 6R4      -0.013000
      7 C07         64.6640   -82.7450   -14.0920 ca         1 6R4      -0.108000
      8 C08         64.3700   -81.8740   -15.1490 ca         1 6R4      -0.060000
      9 C09         65.3790   -81.4990   -16.0480 ca         1 6R4      -0.091000
     10 C10         66.6970   -81.9920   -15.9150 ca         1 6R4      -0.026600
     11 C11         67.7210   -81.5310   -16.9330 c          1 6R4       0.576700
     12 O12         67.6830   -80.1760   -17.1460 os         1 6R4      -0.436100
     13 C13         68.5970   -79.6100   -18.1050 c3         1 6R4       0.144900
     14 O14         68.4860   -82.2840   -17.5180 o          1 6R4      -0.443000
     15 O15         68.7550   -83.9080   -13.0970 o          1 6R4      -0.520000
     16 O16         69.0320   -84.4450   -15.5720 o          1 6R4      -0.520000
     17 N17         70.5560   -80.0350   -14.5140 n          1 6R4      -0.152400
     18 N18         70.5910   -78.7390   -13.9500 n2         1 6R4      -0.530300
     19 C19         71.5340   -78.1540   -14.6430 cc         1 6R4       0.596200
     20 O20         71.9260   -76.8540   -14.4920 os         1 6R4      -0.429600
     21 C21         71.5800   -76.1110   -13.3050 c3         1 6R4       0.184600
     22 C22         72.4440   -76.6080   -12.1200 c3         1 6R4      -0.111400
     23 C23         73.9660   -76.4800   -12.3530 c3         1 6R4      -0.088100
     24 N24         72.0950   -78.9490   -15.5980 n          1 6R4      -0.333300
     25 C25         73.1580   -78.5850   -16.5500 c3         1 6R4       0.115300
     26 C26         71.4910   -80.1660   -15.5410 c          1 6R4       0.585000
     27 O27         71.7210   -81.1390   -16.2460 o          1 6R4      -0.547000
     28 H1          70.3380   -82.3490   -15.4640 hn         1 6R4       0.390500
     29 H2          66.1720   -83.9040   -13.0910 ha         1 6R4       0.145000
     30 H3          63.8830   -83.0340   -13.3930 ha         1 6R4       0.124000
     31 H4          63.3600   -81.4880   -15.2720 ha         1 6R4       0.122000
     32 H5          65.1320   -80.8240   -16.8650 ha         1 6R4       0.125000
     33 H6          68.4620   -78.5230   -18.1670 h1         1 6R4       0.055033
     34 H7          69.6390   -79.8060   -17.8190 h1         1 6R4       0.055033
     35 H8          68.4270   -80.0310   -19.1050 h1         1 6R4       0.055033
     36 H9          71.7810   -75.0430   -13.4630 h1         1 6R4       0.072200
     37 H10         70.5120   -76.2120   -13.0670 h1         1 6R4       0.072200
     38 H11         72.1740   -76.0260   -11.2300 hc         1 6R4       0.065200
     39 H12         72.1970   -77.6510   -11.8910 hc         1 6R4       0.065200
     40 H13         74.5160   -76.8010   -11.4600 hc         1 6R4       0.038700
     41 H14         74.2890   -77.1060   -13.1930 hc         1 6R4       0.038700
     42 H15         74.2400   -75.4410   -12.5690 hc         1 6R4       0.038700
     43 H16         73.8170   -77.8280   -16.1050 h1         1 6R4       0.061367
     44 H17         73.7570   -79.4690   -16.8040 h1         1 6R4       0.061367
     45 H18         72.7100   -78.1780   -17.4640 h1         1 6R4       0.061367
@<TRIPOS>BOND
     1     1     2 2   
     2     2     3 1   
     3     2    17 1   
     4     3     4 1   
     5     3    28 1   
     6     4     5 1   
     7     4    15 2   
     8     4    16 2   
     9     5     6 ar  
    10     5    10 ar  
    11     6     7 ar  
    12     6    29 1   
    13     7     8 ar  
    14     7    30 1   
    15     8     9 ar  
    16     8    31 1   
    17     9    10 ar  
    18     9    32 1   
    19    10    11 1   
    20    11    12 1   
    21    11    14 2   
    22    12    13 1   
    23    13    33 1   
    24    13    34 1   
    25    13    35 1   
    26    17    18 1   
    27    17    26 1   
    28    18    19 2   
    29    19    20 1   
    30    19    24 1   
    31    20    21 1   
    32    21    22 1   
    33    21    36 1   
    34    21    37 1   
    35    22    23 1   
    36    22    38 1   
    37    22    39 1   
    38    23    40 1   
    39    23    41 1   
    40    23    42 1   
    41    24    25 1   
    42    24    26 1   
    43    25    43 1   
    44    25    44 1   
    45    25    45 1   
    46    26    27 2   
@<TRIPOS>SUBSTRUCTURE
     1 6R4         1 TEMP              0 ****  ****    0 ROOT
