@<TRIPOS>MOLECULE
6R4
   45    46     1     0     0
SMALL
abcg2


@<TRIPOS>ATOM
      1 O01         68.8930   -80.7290   -13.3070 o          1 6R4      -0.528100
      2 C02         69.6480   -80.9680   -14.2190 c          1 6R4       0.721100
      3 N03         69.6580   -82.1460   -14.9380 ns         1 6R4      -0.613300
      4 S04         68.6630   -83.4360   -14.5970 sy         1 6R4       1.221300
      5 C05         67.0270   -82.7800   -14.8050 ca         1 6R4      -0.241500
      6 C06         66.0760   -83.1740   -13.8700 ca         1 6R4      -0.013000
      7 C07         64.7720   -82.7090   -13.9760 ca         1 6R4      -0.108000
      8 C08         64.4310   -81.8290   -14.9950 ca         1 6R4      -0.060000
      9 C09         65.3900   -81.4200   -15.9150 ca         1 6R4      -0.091000
     10 C10         66.6930   -81.9040   -15.8440 ca         1 6R4      -0.026600
     11 C11         67.6520   -81.4770   -16.9160 c          1 6R4       0.576700
     12 O12         67.9150   -80.1740   -16.8350 os         1 6R4      -0.436100
     13 C13         68.7670   -79.6180   -17.8660 c3         1 6R4       0.144900
     14 O14         68.0900   -82.2170   -17.7650 o          1 6R4      -0.443000
     15 O15         68.8200   -83.8210   -13.2220 o          1 6R4      -0.520000
     16 O16         68.9630   -84.3920   -15.6290 o          1 6R4      -0.520000
     17 N17         70.5950   -80.0520   -14.6770 n          1 6R4      -0.152400
     18 N18         70.6820   -78.7920   -14.0810 n2         1 6R4      -0.530300
     19 C19         71.6320   -78.2090   -14.7420 cc         1 6R4       0.596200
     20 O20         72.0990   -76.9960   -14.5750 os         1 6R4      -0.429600
     21 C21         71.5780   -76.2160   -13.4500 c3         1 6R4       0.184600
     22 C22         72.2040   -76.6330   -12.1340 c3         1 6R4      -0.111400
     23 C23         73.7250   -76.5050   -12.1150 c3         1 6R4      -0.088100
     24 N24         72.1740   -78.9990   -15.7320 n          1 6R4      -0.333300
     25 C25         73.2480   -78.6660   -16.6570 c3         1 6R4       0.115300
     26 C26         71.5210   -80.2030   -15.7090 c          1 6R4       0.585000
     27 O27         71.7040   -81.1750   -16.4290 o          1 6R4      -0.547000
     28 H1          70.3290   -82.2520   -15.7030 hn         1 6R4       0.390500
     29 H2          66.3610   -83.8290   -13.0610 ha         1 6R4       0.145000
     30 H3          64.0320   -83.0220   -13.2530 ha         1 6R4       0.124000
     31 H4          63.4210   -81.4510   -15.0730 ha         1 6R4       0.122000
     32 H5          65.1280   -80.7240   -16.7010 ha         1 6R4       0.125000
     33 H6          68.9600   -78.5960   -17.5560 h1         1 6R4       0.055033
     34 H7          69.6930   -80.1860   -17.9310 h1         1 6R4       0.055033
     35 H8          68.2480   -79.6410   -18.8220 h1         1 6R4       0.055033
     36 H9          71.8440   -75.1950   -13.7140 h1         1 6R4       0.072200
     37 H10         70.4930   -76.3190   -13.4390 h1         1 6R4       0.072200
     38 H11         71.7610   -75.9900   -11.3670 hc         1 6R4       0.065200
     39 H12         71.9030   -77.6550   -11.8950 hc         1 6R4       0.065200
     40 H13         74.1210   -76.7780   -11.1360 hc         1 6R4       0.038700
     41 H14         74.1850   -77.1610   -12.8560 hc         1 6R4       0.038700
     42 H15         74.0360   -75.4800   -12.3320 hc         1 6R4       0.038700
     43 H16         73.5310   -77.6320   -16.4910 h1         1 6R4       0.061367
     44 H17         74.1040   -79.3160   -16.4780 h1         1 6R4       0.061367
     45 H18         72.8980   -78.7930   -17.6800 h1         1 6R4       0.061367
@<TRIPOS>BOND
     1     1     2 2   
     2     2     3 1   
     3     2    17 1   
     4     3     4 1   
     5     3    28 1   
     6     4     5 1   
     7     4    15 2   
     8     4    16 2   
     9     5     6 ar  
    10     5    10 ar  
    11     6     7 ar  
    12     6    29 1   
    13     7     8 ar  
    14     7    30 1   
    15     8     9 ar  
    16     8    31 1   
    17     9    10 ar  
    18     9    32 1   
    19    10    11 1   
    20    11    12 1   
    21    11    14 2   
    22    12    13 1   
    23    13    33 1   
    24    13    34 1   
    25    13    35 1   
    26    17    18 1   
    27    17    26 1   
    28    18    19 2   
    29    19    20 1   
    30    19    24 1   
    31    20    21 1   
    32    21    22 1   
    33    21    36 1   
    34    21    37 1   
    35    22    23 1   
    36    22    38 1   
    37    22    39 1   
    38    23    40 1   
    39    23    41 1   
    40    23    42 1   
    41    24    25 1   
    42    24    26 1   
    43    25    43 1   
    44    25    44 1   
    45    25    45 1   
    46    26    27 2   
@<TRIPOS>SUBSTRUCTURE
     1 6R4         1 TEMP              0 ****  ****    0 ROOT
