@<TRIPOS>MOLECULE
6R5
   39    40     1     0     0
SMALL
abcg2


@<TRIPOS>ATOM
      1 C10         66.5400   -81.5600   -16.1460 cc         1 6R5      -0.092600
      2 O01         68.9880   -81.2120   -13.0630 o          1 6R5      -0.539100
      3 C02         69.6740   -81.3890   -14.0430 c          1 6R5       0.718100
      4 N03         69.5100   -82.4090   -14.9520 ns         1 6R5      -0.588300
      5 S04         68.2450   -83.4890   -14.9110 sy         1 6R5       1.257300
      6 C05         66.7880   -82.5170   -15.0890 cc         1 6R5      -0.299500
      7 C06         65.7380   -82.6430   -14.2060 cd         1 6R5      -0.067300
      8 C07         65.5500   -83.4810   -12.9820 c3         1 6R5      -0.043800
      9 S08         64.4470   -81.6000   -14.6760 ss         1 6R5       0.259000
     10 C09         65.3010   -80.9930   -16.0190 cd         1 6R5      -0.199000
     11 C11         67.4490   -81.1910   -17.2540 c          1 6R5       0.615700
     12 O12         66.9770   -80.1520   -17.9540 os         1 6R5      -0.443100
     13 C13         67.7780   -79.7190   -19.0720 c3         1 6R5       0.154900
     14 O14         68.4940   -81.7450   -17.5170 o          1 6R5      -0.478000
     15 O15         68.4420   -84.3160   -16.0700 o          1 6R5      -0.526500
     16 O16         68.2280   -84.1050   -13.6150 o          1 6R5      -0.526500
     17 N17         70.7420   -80.5460   -14.3720 n          1 6R5      -0.159400
     18 N18         71.0450   -79.4620   -13.5430 n2         1 6R5      -0.532300
     19 C19         72.0370   -78.8910   -14.1490 cc         1 6R5       0.588200
     20 O20         72.6940   -77.8190   -13.7730 os         1 6R5      -0.419600
     21 C21         72.2750   -77.2090   -12.5270 c3         1 6R5       0.166900
     22 N22         72.4080   -79.5160   -15.3140 n          1 6R5      -0.334300
     23 C23         73.4730   -79.1180   -16.2230 c3         1 6R5       0.114300
     24 C24         71.5830   -80.6010   -15.4860 c          1 6R5       0.591000
     25 O25         71.5850   -81.4150   -16.3950 o          1 6R5      -0.529000
     26 H1          70.0340   -82.3620   -15.8280 hn         1 6R5       0.395500
     27 H2          64.5490   -83.3350   -12.5790 hc         1 6R5       0.072367
     28 H3          65.6850   -84.5380   -13.2070 hc         1 6R5       0.072367
     29 H4          66.2780   -83.2100   -12.2170 hc         1 6R5       0.072367
     30 H5          64.8590   -80.2520   -16.6640 h4         1 6R5       0.169000
     31 H6          67.2350   -78.8860   -19.5090 h1         1 6R5       0.053367
     32 H7          68.7600   -79.3980   -18.7270 h1         1 6R5       0.053367
     33 H8          67.8870   -80.5270   -19.7930 h1         1 6R5       0.053367
     34 H9          72.9350   -76.3580   -12.3930 h1         1 6R5       0.062033
     35 H10         71.2380   -76.8880   -12.6060 h1         1 6R5       0.062033
     36 H11         72.3910   -77.9220   -11.7130 h1         1 6R5       0.062033
     37 H12         73.2770   -78.1190   -16.6090 h1         1 6R5       0.061033
     38 H13         74.4300   -79.1330   -15.7040 h1         1 6R5       0.061033
     39 H14         73.4880   -79.8320   -17.0420 h1         1 6R5       0.061033
@<TRIPOS>BOND
     1     1     6 1   
     2     1    10 2   
     3     1    11 1   
     4     2     3 2   
     5     3     4 1   
     6     3    17 1   
     7     4     5 1   
     8     4    26 1   
     9     5     6 1   
    10     5    15 2   
    11     5    16 2   
    12     6     7 2   
    13     7     8 1   
    14     7     9 1   
    15     8    27 1   
    16     8    28 1   
    17     8    29 1   
    18     9    10 1   
    19    10    30 1   
    20    11    12 1   
    21    11    14 2   
    22    12    13 1   
    23    13    31 1   
    24    13    32 1   
    25    13    33 1   
    26    17    18 1   
    27    17    24 1   
    28    18    19 2   
    29    19    20 1   
    30    19    22 1   
    31    20    21 1   
    32    21    34 1   
    33    21    35 1   
    34    21    36 1   
    35    22    23 1   
    36    22    24 1   
    37    23    37 1   
    38    23    38 1   
    39    23    39 1   
    40    24    25 2   
@<TRIPOS>SUBSTRUCTURE
     1 6R5         1 TEMP              0 ****  ****    0 ROOT
