@<TRIPOS>MOLECULE
6R5
   39    40     1     0     0
SMALL
No Charge or Current Charge


@<TRIPOS>ATOM
      1 C10         66.5880   -81.5340   -16.1710 cc         1 6R5      -0.092600
      2 O01         69.0910   -81.5300   -12.9660 o          1 6R5      -0.539100
      3 C02         69.7130   -81.5520   -14.0190 c          1 6R5       0.718100
      4 N03         69.4790   -82.4840   -14.9730 ns         1 6R5      -0.588300
      5 S04         68.2760   -83.6330   -14.9980 sy         1 6R5       1.257300
      6 C05         66.8480   -82.4950   -15.1120 cc         1 6R5      -0.299500
      7 C06         65.8400   -82.4540   -14.1530 cd         1 6R5      -0.067300
      8 C07         65.6840   -83.2650   -12.8870 c3         1 6R5      -0.043800
      9 S08         64.5770   -81.2690   -14.5210 ss         1 6R5       0.259000
     10 C09         65.4220   -80.8220   -15.9930 cd         1 6R5      -0.199000
     11 C11         67.4540   -81.2630   -17.3720 c          1 6R5       0.615700
     12 O12         66.9370   -80.3070   -18.2140 os         1 6R5      -0.443100
     13 C13         67.6860   -79.9560   -19.3940 c3         1 6R5       0.154900
     14 O14         68.5220   -81.8120   -17.6000 o          1 6R5      -0.478000
     15 O15         68.4230   -84.3570   -16.2650 o          1 6R5      -0.526500
     16 O16         68.2900   -84.3230   -13.7040 o          1 6R5      -0.526500
     17 N17         70.7220   -80.5990   -14.3180 n          1 6R5      -0.159400
     18 N18         71.0380   -79.5480   -13.4240 n2         1 6R5      -0.532300
     19 C19         71.9870   -78.9120   -14.0600 cc         1 6R5       0.588200
     20 O20         72.6340   -77.8040   -13.5890 os         1 6R5      -0.419600
     21 C21         72.2760   -77.2530   -12.3080 c3         1 6R5       0.166900
     22 N22         72.3080   -79.4560   -15.2680 n          1 6R5      -0.334300
     23 C23         73.3390   -78.9900   -16.2120 c3         1 6R5       0.114300
     24 C24         71.5180   -80.5460   -15.4630 c          1 6R5       0.591000
     25 O25         71.5250   -81.3010   -16.4250 o          1 6R5      -0.529000
     26 H1          69.9380   -82.4140   -15.8670 hn         1 6R5       0.395500
     27 H2          64.7460   -83.0280   -12.3730 hc         1 6R5       0.072367
     28 H3          65.6720   -84.3400   -13.1000 hc         1 6R5       0.072367
     29 H4          66.4980   -83.0600   -12.1820 hc         1 6R5       0.072367
     30 H5          65.0000   -80.0520   -16.6270 h4         1 6R5       0.169000
     31 H6          67.1560   -79.1850   -19.9670 h1         1 6R5       0.053367
     32 H7          68.6750   -79.5620   -19.1280 h1         1 6R5       0.053367
     33 H8          67.8230   -80.8290   -20.0460 h1         1 6R5       0.053367
     34 H9          72.8890   -76.3710   -12.0860 h1         1 6R5       0.062033
     35 H10         71.2220   -76.9470   -12.2930 h1         1 6R5       0.062033
     36 H11         72.4350   -77.9880   -11.5070 h1         1 6R5       0.062033
     37 H12         73.4790   -77.9070   -16.1120 h1         1 6R5       0.061033
     38 H13         74.2880   -79.4970   -15.9990 h1         1 6R5       0.061033
     39 H14         73.0350   -79.2130   -17.2430 h1         1 6R5       0.061033
@<TRIPOS>BOND
     1     1     6 1   
     2     1    10 2   
     3     1    11 1   
     4     2     3 2   
     5     3     4 1   
     6     3    17 1   
     7     4     5 1   
     8     4    26 1   
     9     5     6 1   
    10     5    15 2   
    11     5    16 2   
    12     6     7 2   
    13     7     8 1   
    14     7     9 1   
    15     8    27 1   
    16     8    28 1   
    17     8    29 1   
    18     9    10 1   
    19    10    30 1   
    20    11    12 1   
    21    11    14 2   
    22    12    13 1   
    23    13    31 1   
    24    13    32 1   
    25    13    33 1   
    26    17    18 1   
    27    17    24 1   
    28    18    19 2   
    29    19    20 1   
    30    19    22 1   
    31    20    21 1   
    32    21    34 1   
    33    21    35 1   
    34    21    36 1   
    35    22    23 1   
    36    22    24 1   
    37    23    37 1   
    38    23    38 1   
    39    23    39 1   
    40    24    25 2   
@<TRIPOS>SUBSTRUCTURE
     1 6R5         1 TEMP              0 ****  ****    0 ROOT
