@<TRIPOS>MOLECULE
6R6
   18    18     1     0     0
SMALL
abcg2


@<TRIPOS>ATOM
      1 C01          1.2480     1.5780    -0.0020 ca         1 6R6       0.006000
      2 C02         -0.0040     2.1260     0.0150 ca         1 6R6      -0.279000
      3 C03         -1.1690     1.3180     0.0180 ca         1 6R6       0.420000
      4 C04         -1.0160    -0.1000     0.0060 ca         1 6R6      -0.257600
      5 C05          0.2590    -0.6270    -0.0100 ca         1 6R6       0.032000
      6 C06          1.3880     0.1860    -0.0160 ca         1 6R6      -0.303200
      7 N07          2.6890    -0.3970    -0.0370 no         1 6R6       0.713200
      8 O08          2.7900    -1.6090    -0.0540 o          1 6R6      -0.455000
      9 O09          3.6570     0.3410    -0.0370 o          1 6R6      -0.455000
     10 C10         -2.1980    -1.0590     0.0090 c          1 6R6       0.728600
     11 O11         -1.9390    -2.2730     0.0160 o          1 6R6      -0.717500
     12 O12         -3.3470    -0.5550     0.0010 o          1 6R6      -0.717500
     13 N13         -2.3720     1.8930     0.0330 nv         1 6R6      -1.111000
     14 H1           2.1120     2.2270    -0.0050 ha         1 6R6       0.118000
     15 H2          -0.1150     3.2030     0.0250 ha         1 6R6       0.094000
     16 H3           0.3570    -1.7030    -0.0190 ha         1 6R6       0.163000
     17 H5          -2.4720     2.8930     0.0360 hn         1 6R6       0.509000
     18 H6          -3.1770     1.2740     0.0250 hn         1 6R6       0.509000
@<TRIPOS>BOND
     1     1     2 ar  
     2     1     6 ar  
     3     1    14 1   
     4     2     3 ar  
     5     2    15 1   
     6     3     4 ar  
     7     3    13 1   
     8     4     5 ar  
     9     4    10 1   
    10     5     6 ar  
    11     5    16 1   
    12     6     7 1   
    13     7     8 1   
    14     7     9 1   
    15    10    11 1   
    16    10    12 1   
    17    13    17 1   
    18    13    18 1   
@<TRIPOS>SUBSTRUCTURE
     1 6R6         1 TEMP              0 ****  ****    0 ROOT
