@<TRIPOS>MOLECULE
6R6
   18    18     1     0     0
SMALL
No Charge or Current Charge


@<TRIPOS>ATOM
      1 C01          1.2380     1.5800     0.0390 ca         1 6R6       0.006000
      2 C02         -0.0500     2.1270     0.1180 ca         1 6R6      -0.279000
      3 C03         -1.1770     1.3000     0.1170 ca         1 6R6       0.420000
      4 C04         -1.0380    -0.0950     0.0320 ca         1 6R6      -0.257600
      5 C05          0.2580    -0.6500    -0.0430 ca         1 6R6       0.032000
      6 C06          1.4020     0.1810    -0.0420 ca         1 6R6      -0.303200
      7 N07          2.7700    -0.4170    -0.1260 no         1 6R6       0.713200
      8 O08          2.8670    -1.6480    -0.2010 o          1 6R6      -0.455000
      9 O09          3.7450     0.3460    -0.1180 o          1 6R6      -0.455000
     10 C10         -2.2270    -1.0160     0.0280 c          1 6R6       0.728600
     11 O11         -2.0940    -2.1190     0.5360 o          1 6R6      -0.717500
     12 O12         -3.2600    -0.6520    -0.5180 o          1 6R6      -0.717500
     13 N13         -2.3970     1.8930     0.2040 nv         1 6R6      -1.111000
     14 H1           2.0980     2.2480     0.0430 ha         1 6R6       0.118000
     15 H2          -0.1640     3.2050     0.1850 ha         1 6R6       0.094000
     16 H3           0.3690    -1.7330    -0.1080 ha         1 6R6       0.163000
     17 H5          -2.4670     2.8710    -0.0650 hn         1 6R6       0.509000
     18 H6          -3.1800     1.2960    -0.0770 hn         1 6R6       0.509000
@<TRIPOS>BOND
     1     1     2 ar  
     2     1     6 ar  
     3     1    14 1   
     4     2     3 ar  
     5     2    15 1   
     6     3     4 ar  
     7     3    13 1   
     8     4     5 ar  
     9     4    10 1   
    10     5     6 ar  
    11     5    16 1   
    12     6     7 1   
    13     7     8 1   
    14     7     9 1   
    15    10    11 1   
    16    10    12 1   
    17    13    17 1   
    18    13    18 1   
@<TRIPOS>SUBSTRUCTURE
     1 6R6         1 TEMP              0 ****  ****    0 ROOT
