@<TRIPOS>MOLECULE
6R7
   17    17     1     0     0
SMALL
No Charge or Current Charge


@<TRIPOS>ATOM
      1 OAA         -3.3400    -0.4310     0.0990 o          1 6R7      -0.670500
      2 CAB         -2.2370    -0.9600     0.0610 c          1 6R7       0.729600
      3 OAC         -2.0700    -2.1690     0.0310 o          1 6R7      -0.670500
      4 CAD         -1.0240    -0.0630     0.0500 ca         1 6R7      -0.313600
      5 CAE          0.2700    -0.6330     0.0070 ca         1 6R7       0.044000
      6 CAF          1.4230     0.1860    -0.0040 ca         1 6R7      -0.296200
      7 NAK          2.7850    -0.4310    -0.0500 no         1 6R7       0.712200
      8 OAM          2.8690    -1.6650    -0.0790 o          1 6R7      -0.448500
      9 OAL          3.7690     0.3200    -0.0590 o          1 6R7      -0.448500
     10 CAG          1.2780     1.5890     0.0300 ca         1 6R7      -0.003000
     11 CAH         -0.0030     2.1550     0.0730 ca         1 6R7      -0.241000
     12 CAI         -1.1400     1.3410     0.0830 ca         1 6R7       0.277100
     13 OAJ         -2.3600     1.9320     0.1260 oh         1 6R7      -0.626100
     14 H2           0.3790    -1.7170    -0.0190 ha         1 6R7       0.156000
     15 H3           2.1470     2.2460     0.0230 ha         1 6R7       0.122000
     16 H4          -0.1140     3.2350     0.0990 ha         1 6R7       0.115000
     17 H5          -2.9970     1.1620     0.1250 ho         1 6R7       0.563000
@<TRIPOS>BOND
     1     1     2 1   
     2     2     3 1   
     3     2     4 1   
     4     4     5 ar  
     5     4    12 ar  
     6     5     6 ar  
     7     5    14 1   
     8     6     7 1   
     9     6    10 ar  
    10     7     8 1   
    11     7     9 1   
    12    10    11 ar  
    13    10    15 1   
    14    11    12 ar  
    15    11    16 1   
    16    12    13 1   
    17    13    17 1   
@<TRIPOS>SUBSTRUCTURE
     1 6R7         1 TEMP              0 ****  ****    0 ROOT
