@<TRIPOS>MOLECULE
6R7
   17    17     1     0     0
SMALL
abcg2


@<TRIPOS>ATOM
      1 OAA         -3.3120    -0.3110     0.1050 o          1 6R7      -0.670500
      2 CAB         -2.2080    -0.9460     0.0590 c          1 6R7       0.729600
      3 OAC         -2.0880    -2.1690     0.0270 o          1 6R7      -0.670500
      4 CAD         -0.9790    -0.0740     0.0470 ca         1 6R7      -0.313600
      5 CAE          0.2840    -0.6290     0.0050 ca         1 6R7       0.044000
      6 CAF          1.4050     0.1890    -0.0040 ca         1 6R7      -0.296200
      7 NAK          2.7160    -0.3980    -0.0470 no         1 6R7       0.712200
      8 OAM          2.8080    -1.6070    -0.0720 o          1 6R7      -0.448500
      9 OAL          3.6780     0.3400    -0.0550 o          1 6R7      -0.448500
     10 CAG          1.2740     1.5800     0.0290 ca         1 6R7      -0.003000
     11 CAH          0.0230     2.1450     0.0710 ca         1 6R7      -0.241000
     12 CAI         -1.1250     1.3340     0.0820 ca         1 6R7       0.277100
     13 OAJ         -2.3170     1.8750     0.1250 oh         1 6R7      -0.626100
     14 H2           0.3790    -1.7060    -0.0200 ha         1 6R7       0.156000
     15 H3           2.1450     2.2200     0.0220 ha         1 6R7       0.122000
     16 H4          -0.0860     3.2210     0.0970 ha         1 6R7       0.115000
     17 H5          -2.9610     1.0320     0.1250 ho         1 6R7       0.563000
@<TRIPOS>BOND
     1     1     2 1   
     2     2     3 1   
     3     2     4 1   
     4     4     5 ar  
     5     4    12 ar  
     6     5     6 ar  
     7     5    14 1   
     8     6     7 1   
     9     6    10 ar  
    10     7     8 1   
    11     7     9 1   
    12    10    11 ar  
    13    10    15 1   
    14    11    12 ar  
    15    11    16 1   
    16    12    13 1   
    17    13    17 1   
@<TRIPOS>SUBSTRUCTURE
     1 6R7         1 TEMP              0 ****  ****    0 ROOT
