@<TRIPOS>MOLECULE
6R8
   21    21     1     0     0
SMALL
No Charge or Current Charge


@<TRIPOS>ATOM
      1 O14         -1.2950     1.5170    -1.4440 oh         1 6R8      -0.683000
      2 O11         -3.1490    -1.0450    -0.3810 o          1 6R8      -0.709000
      3 C10         -2.0090    -1.4270    -0.1620 c          1 6R8       0.707200
      4 O12         -1.7370    -2.6140    -0.0470 o          1 6R8      -0.709000
      5 C01         -1.1280     1.1020    -0.1610 c6         1 6R8       0.461400
      6 C02         -0.0490     1.9570     0.5680 c6         1 6R8      -0.048200
      7 C03          1.3560     1.3960     0.4150 c2         1 6R8      -0.133200
      8 C04          1.5700     0.0670     0.2550 ce         1 6R8      -0.137100
      9 C05          0.4100    -0.8460     0.1620 ce         1 6R8      -0.184000
     10 C06         -0.8860    -0.4210    -0.0240 cf         1 6R8      -0.219400
     11 N07          2.9650    -0.4790     0.1660 no         1 6R8       0.670100
     12 O08          3.9170     0.3100     0.2590 o          1 6R8      -0.423500
     13 O09          3.1110    -1.6980     0.0020 o          1 6R8      -0.423500
     14 N13         -2.4170     1.5070     0.2550 n8         1 6R8      -1.041200
     15 H1          -2.1450     1.9740    -1.2630 ho         1 6R8       0.500000
     16 H3          -0.0760     2.9970     0.2160 hc         1 6R8       0.065200
     17 H4           2.1750     2.1150     0.4810 ha         1 6R8       0.194000
     18 H5           0.6160    -1.9180     0.2180 ha         1 6R8       0.225000
     19 H7          -3.0160     0.6970     0.0220 hn         1 6R8       0.411000
     20 H8          -2.4190     1.4760     1.2790 hn         1 6R8       0.411000
     21 H6          -0.2780     1.9950     1.6420 hc         1 6R8       0.065200
@<TRIPOS>BOND
     1     1     5 1   
     2     1    15 1   
     3     2     3 1   
     4     3     4 1   
     5     3    10 1   
     6     5     6 1   
     7     5    10 1   
     8     5    14 1   
     9     6     7 1   
    10     6    16 1   
    11     6    21 1   
    12     7     8 2   
    13     7    17 1   
    14     8     9 1   
    15     8    11 1   
    16     9    10 2   
    17     9    18 1   
    18    11    12 1   
    19    11    13 1   
    20    14    19 1   
    21    14    20 1   
@<TRIPOS>SUBSTRUCTURE
     1 6R8         1 TEMP              0 ****  ****    0 ROOT
