@<TRIPOS>MOLECULE
6R8
   21    21     1     0     0
SMALL
abcg2


@<TRIPOS>ATOM
      1 O14         -1.4100     1.5330    -1.3530 oh         1 6R8      -0.683000
      2 O11         -2.8790    -0.7730    -1.1210 o          1 6R8      -0.709000
      3 C10         -1.9940    -1.2780    -0.3830 c          1 6R8       0.707200
      4 O12         -1.9500    -2.4460     0.0250 o          1 6R8      -0.709000
      5 C01         -1.1670     1.1550    -0.0210 c6         1 6R8       0.461400
      6 C02          0.0030     1.9970     0.5030 c6         1 6R8      -0.048200
      7 C03          1.3590     1.4120     0.3720 c2         1 6R8      -0.133200
      8 C04          1.5100     0.0920     0.2390 ce         1 6R8      -0.137100
      9 C05          0.3800    -0.8120     0.1170 ce         1 6R8      -0.184000
     10 C06         -0.8610    -0.3360    -0.0190 cf         1 6R8      -0.219400
     11 N07          2.8510    -0.4650     0.2020 no         1 6R8       0.670100
     12 O08          3.7990     0.2830     0.2730 o          1 6R8      -0.423500
     13 O09          2.9550    -1.6670     0.1030 o          1 6R8      -0.423500
     14 N13         -2.3220     1.5040     0.7950 n8         1 6R8      -1.041200
     15 H1          -2.0620     0.8810    -1.6720 ho         1 6R8       0.500000
     16 H3          -0.0290     2.9850     0.0370 hc         1 6R8       0.065200
     17 H4           2.2080     2.0760     0.4590 ha         1 6R8       0.194000
     18 H5           0.5510    -1.8790     0.0800 ha         1 6R8       0.225000
     19 H7          -3.1300     0.9740     0.4890 hn         1 6R8       0.411000
     20 H8          -2.1600     1.2380     1.7600 hn         1 6R8       0.411000
     21 H6          -0.1350     2.1870     1.5750 hc         1 6R8       0.065200
@<TRIPOS>BOND
     1     1     5 1   
     2     1    15 1   
     3     2     3 1   
     4     3     4 1   
     5     3    10 1   
     6     5     6 1   
     7     5    10 1   
     8     5    14 1   
     9     6     7 1   
    10     6    16 1   
    11     6    21 1   
    12     7     8 2   
    13     7    17 1   
    14     8     9 1   
    15     8    11 1   
    16     9    10 2   
    17     9    18 1   
    18    11    12 1   
    19    11    13 1   
    20    14    19 1   
    21    14    20 1   
@<TRIPOS>SUBSTRUCTURE
     1 6R8         1 TEMP              0 ****  ****    0 ROOT
