@<TRIPOS>MOLECULE
6RA
   37    40     1     0     0
SMALL
No Charge or Current Charge


@<TRIPOS>ATOM
      1 C7         117.4210    96.5480   146.3800 ca         1 6RA      -0.116000
      2 C6         116.9280    95.9620   145.2030 ca         1 6RA      -0.088000
      3 C9         119.4890    95.2990   146.1310 ca         1 6RA      -0.116000
      4 C13        114.8290    93.8750   142.3860 cc         1 6RA       0.641700
      5 C20        113.8350    94.0040   140.4370 ca         1 6RA      -0.087200
      6 C8         118.7010    96.2130   146.8470 ca         1 6RA      -0.098000
      7 C18        112.1690    93.7940   138.7210 ca         1 6RA      -0.108000
      8 C16        111.7270    92.9910   141.0000 ca         1 6RA      -0.067000
      9 C19        113.4600    94.2150   139.1050 ca         1 6RA      -0.111000
     10 C1         119.4730    93.4970   142.7310 c6         1 6RA      -0.069400
     11 C2         117.9620    93.2050   142.6690 c6         1 6RA      -0.109400
     12 C3         117.1410    94.4140   143.1820 c6         1 6RA       0.272800
     13 C5         117.7030    95.0260   144.4820 ca         1 6RA      -0.097300
     14 C10        119.0060    94.7090   144.9470 ca         1 6RA      -0.062300
     15 C11        119.9090    93.7260   144.1930 c6         1 6RA      -0.035100
     16 N12        115.7520    93.9850   143.3670 nu         1 6RA      -0.874400
     17 N14        113.6330    93.3290   142.6070 nd         1 6RA      -0.646100
     18 C15        113.0140    93.4170   141.3610 ca         1 6RA       0.103400
     19 C17        111.3070    93.1850   139.6650 ca         1 6RA      -0.127000
     20 N21        114.9950    94.3010   141.0830 na         1 6RA      -0.347600
     21 H27        116.8120    97.2630   146.9280 ha         1 6RA       0.117000
     22 H26        115.9370    96.2390   144.8480 ha         1 6RA       0.127000
     23 H29        120.4830    95.0500   146.4960 ha         1 6RA       0.112000
     24 H28        119.0840    96.6660   147.7590 ha         1 6RA       0.115000
     25 H35        111.8360    93.9390   137.6960 ha         1 6RA       0.111000
     26 H33        111.0720    92.5250   141.7320 ha         1 6RA       0.126000
     27 H36        114.1350    94.6850   138.3930 ha         1 6RA       0.113000
     28 H23        120.0400    92.6620   142.2970 hc         1 6RA       0.046700
     29 H22        119.7060    94.3850   142.1270 hc         1 6RA       0.046700
     30 H24        117.6680    92.9620   141.6390 hc         1 6RA       0.052700
     31 H25        117.7420    92.3150   143.2760 hc         1 6RA       0.052700
     32 H4         117.1920    95.2060   142.4190 h1         1 6RA       0.055700
     33 H30        119.9080    92.7650   144.7260 hc         1 6RA       0.052200
     34 H31        120.9490    94.0820   144.2090 hc         1 6RA       0.052200
     35 H32        115.4690    93.5540   144.2410 hn         1 6RA       0.498000
     36 H34        110.3130    92.8630   139.3600 ha         1 6RA       0.111000
     37 H37        115.8170    94.7450   140.7060 hn         1 6RA       0.354000
@<TRIPOS>BOND
     1     1     2 ar  
     2     1     6 ar  
     3     1    21 1   
     4     2    13 ar  
     5     2    22 1   
     6     3     6 ar  
     7     3    14 ar  
     8     3    23 1   
     9     4    16 1   
    10     4    17 2   
    11     4    20 1   
    12     5     9 ar  
    13     5    18 ar  
    14     5    20 1   
    15     6    24 1   
    16     7     9 ar  
    17     7    19 ar  
    18     7    25 1   
    19     8    18 ar  
    20     8    19 ar  
    21     8    26 1   
    22     9    27 1   
    23    10    11 1   
    24    10    15 1   
    25    10    28 1   
    26    10    29 1   
    27    11    12 1   
    28    11    30 1   
    29    11    31 1   
    30    12    13 1   
    31    12    16 1   
    32    12    32 1   
    33    13    14 ar  
    34    14    15 1   
    35    15    33 1   
    36    15    34 1   
    37    16    35 1   
    38    17    18 1   
    39    19    36 1   
    40    20    37 1   
@<TRIPOS>SUBSTRUCTURE
     1 6RA         1 TEMP              0 ****  ****    0 ROOT
