@<TRIPOS>MOLECULE
6RA
   37    40     1     0     0
SMALL
abcg2


@<TRIPOS>ATOM
      1 C7         117.5140    96.5550   146.3710 ca         1 6RA      -0.116000
      2 C6         116.9730    95.9670   145.2400 ca         1 6RA      -0.088000
      3 C9         119.5200    95.2870   146.0380 ca         1 6RA      -0.116000
      4 C13        114.7880    93.9600   142.4530 cc         1 6RA       0.641700
      5 C20        113.8660    94.0740   140.4550 ca         1 6RA      -0.087200
      6 C8         118.7970    96.2090   146.7760 ca         1 6RA      -0.098000
      7 C18        112.2900    93.7630   138.7210 ca         1 6RA      -0.108000
      8 C16        111.8350    92.8560   140.9290 ca         1 6RA      -0.067000
      9 C19        113.5120    94.2840   139.1340 ca         1 6RA      -0.111000
     10 C1         119.3220    93.4650   142.7190 c6         1 6RA      -0.069400
     11 C2         117.8250    93.2100   142.7370 c6         1 6RA      -0.109400
     12 C3         117.0770    94.4450   143.2370 c6         1 6RA       0.272800
     13 C5         117.6930    95.0300   144.4960 ca         1 6RA      -0.097300
     14 C10        118.9870    94.6880   144.8960 ca         1 6RA      -0.062300
     15 C11        119.8190    93.6840   144.1390 c6         1 6RA      -0.035100
     16 N12        115.6650    94.1850   143.4620 nu         1 6RA      -0.874400
     17 N14        113.6580    93.3100   142.5960 nd         1 6RA      -0.646100
     18 C15        113.0540    93.3690   141.3620 ca         1 6RA       0.103400
     19 C17        111.4670    93.0610   139.6060 ca         1 6RA      -0.127000
     20 N21        114.9730    94.4350   141.1890 na         1 6RA      -0.347600
     21 H27        116.9380    97.2790   146.9320 ha         1 6RA       0.117000
     22 H26        115.9730    96.2370   144.9260 ha         1 6RA       0.127000
     23 H29        120.5250    95.0230   146.3480 ha         1 6RA       0.112000
     24 H28        119.2340    96.6610   147.6570 ha         1 6RA       0.115000
     25 H35        111.9730    93.9040   137.6960 ha         1 6RA       0.111000
     26 H33        111.1920    92.3110   141.6080 ha         1 6RA       0.126000
     27 H36        114.1510    94.8280   138.4510 ha         1 6RA       0.113000
     28 H23        119.8480    92.6250   142.2630 hc         1 6RA       0.046700
     29 H22        119.5410    94.3430   142.1030 hc         1 6RA       0.046700
     30 H24        117.4590    92.9480   141.7420 hc         1 6RA       0.052700
     31 H25        117.6000    92.3650   143.3950 hc         1 6RA       0.052700
     32 H4         117.1560    95.2250   142.4700 h1         1 6RA       0.055700
     33 H30        119.7970    92.7310   144.6780 hc         1 6RA       0.052200
     34 H31        120.8630    94.0040   144.1390 hc         1 6RA       0.052200
     35 H32        115.4610    93.6330   144.2840 hn         1 6RA       0.498000
     36 H34        110.5230    92.6690   139.2510 ha         1 6RA       0.111000
     37 H37        115.7490    94.9830   140.8530 hn         1 6RA       0.354000
@<TRIPOS>BOND
     1     1     2 ar  
     2     1     6 ar  
     3     1    21 1   
     4     2    13 ar  
     5     2    22 1   
     6     3     6 ar  
     7     3    14 ar  
     8     3    23 1   
     9     4    16 1   
    10     4    17 2   
    11     4    20 1   
    12     5     9 ar  
    13     5    18 ar  
    14     5    20 1   
    15     6    24 1   
    16     7     9 ar  
    17     7    19 ar  
    18     7    25 1   
    19     8    18 ar  
    20     8    19 ar  
    21     8    26 1   
    22     9    27 1   
    23    10    11 1   
    24    10    15 1   
    25    10    28 1   
    26    10    29 1   
    27    11    12 1   
    28    11    30 1   
    29    11    31 1   
    30    12    13 1   
    31    12    16 1   
    32    12    32 1   
    33    13    14 ar  
    34    14    15 1   
    35    15    33 1   
    36    15    34 1   
    37    16    35 1   
    38    17    18 1   
    39    19    36 1   
    40    20    37 1   
@<TRIPOS>SUBSTRUCTURE
     1 6RA         1 TEMP              0 ****  ****    0 ROOT
