@<TRIPOS>MOLECULE
6RB
   65    69     1     0     0
SMALL
No Charge or Current Charge


@<TRIPOS>ATOM
      1 CAA          8.9960     0.5740    -0.7550 c3         1 6RB       0.147900
      2 OAX          8.0470    -0.1550     0.0450 os         1 6RB      -0.340100
      3 CBB          6.7280    -0.3340    -0.3380 ca         1 6RB       0.160100
      4 CAL          6.2380     0.1950    -1.5490 ca         1 6RB      -0.221000
      5 CAK          4.8990     0.0000    -1.9160 ca         1 6RB      -0.070000
      6 CBG          5.8590    -1.0630     0.5080 ca         1 6RB      -0.061000
      7 CAN          6.3340    -1.6020     1.7260 ca         1 6RB      -0.080000
      8 CAH          5.4780    -2.3240     2.5710 ca         1 6RB      -0.122000
      9 CAG          4.1380    -2.5170     2.2090 ca         1 6RB      -0.102000
     10 CAM          3.6520    -1.9890     1.0030 ca         1 6RB      -0.097000
     11 CBF          4.5020    -1.2590     0.1370 ca         1 6RB       0.010000
     12 CBA          4.0210    -0.7220    -1.0870 ca         1 6RB      -0.111300
     13 CAT          2.5720    -0.9010    -1.5520 c3         1 6RB       0.221100
     14 NBH          1.5880    -0.1240    -0.7620 n3         1 6RB      -0.727600
     15 CAU          0.1770    -0.4880    -1.1140 c6         1 6RB       0.249100
     16 CBD         -0.7930     0.4110    -0.3820 cc         1 6RB      -0.142300
     17 CAQ          1.8240     1.3560    -0.7980 c6         1 6RB       0.171800
     18 CAP          0.9520     2.1150     0.2420 c6         1 6RB      -0.008100
     19 CBE         -0.4560     1.5760     0.2150 cd         1 6RB      -0.146300
     20 NBI         -1.6460     2.0720     0.7510 na         1 6RB       0.149800
     21 CAR         -1.8150     3.3200     1.5100 c3         1 6RB       0.077600
     22 CAO         -2.0380     4.5430     0.6000 c3         1 6RB       0.141600
     23 OAC         -2.1760     5.7330     1.3920 oh         1 6RB      -0.659000
     24 NAV         -2.7290     1.2420     0.4820 nd         1 6RB      -0.522800
     25 CBC         -2.1860     0.2420    -0.2130 cc         1 6RB       0.208500
     26 CAY         -2.9550    -0.9310    -0.7680 c          1 6RB       0.530600
     27 OAB         -2.4830    -1.8530    -1.4250 o          1 6RB      -0.613100
     28 NAW         -4.3010    -0.8860    -0.4720 ns         1 6RB      -0.495900
     29 CAS         -5.2790    -1.8870    -0.8850 c3         1 6RB       0.156300
     30 CAZ         -6.6710    -1.5240    -0.3910 ca         1 6RB      -0.115300
     31 CAI         -7.1170    -1.9730     0.8680 ca         1 6RB      -0.093000
     32 CAE         -8.4020    -1.6340     1.3260 ca         1 6RB      -0.114000
     33 CAD         -9.2470    -0.8430     0.5300 ca         1 6RB      -0.101000
     34 CAF         -8.8060    -0.3910    -0.7250 ca         1 6RB      -0.114000
     35 CAJ         -7.5210    -0.7290    -1.1840 ca         1 6RB      -0.093000
     36 H1           9.1190     0.1030    -1.7390 h1         1 6RB       0.041700
     37 H2           8.6700     1.6120    -0.8970 h1         1 6RB       0.041700
     38 H3           9.9750     0.5900    -0.2610 h1         1 6RB       0.041700
     39 H4           6.8770     0.7600    -2.2210 ha         1 6RB       0.117000
     40 H5           4.5410     0.4170    -2.8550 ha         1 6RB       0.107000
     41 H6           7.3700    -1.4640     2.0290 ha         1 6RB       0.124000
     42 H7           5.8540    -2.7340     3.5060 ha         1 6RB       0.112000
     43 H8           3.4730    -3.0750     2.8650 ha         1 6RB       0.113000
     44 H9           2.6070    -2.1520     0.7570 ha         1 6RB       0.134000
     45 H10          2.4970    -0.6190    -2.6120 h1         1 6RB       0.040200
     46 H11          2.3290    -1.9720    -1.5060 h1         1 6RB       0.040200
     47 H13          0.0160    -0.3890    -2.1980 h1         1 6RB       0.055700
     48 H14         -0.0060    -1.5400    -0.8540 h1         1 6RB       0.055700
     49 H15          2.8780     1.5950    -0.5950 h1         1 6RB       0.040200
     50 H16          1.5970     1.7430    -1.8030 h1         1 6RB       0.040200
     51 H17          1.3830     1.9790     1.2430 hc         1 6RB       0.060700
     52 H18          0.9730     3.1930     0.0310 hc         1 6RB       0.060700
     53 H19         -2.6720     3.2060     2.1850 h1         1 6RB       0.080200
     54 H20         -0.9190     3.4780     2.1220 h1         1 6RB       0.080200
     55 H21         -1.1870     4.6400    -0.0870 h1         1 6RB       0.033200
     56 H22         -2.9410     4.3800    -0.0040 h1         1 6RB       0.033200
     57 H23         -2.3250     6.4810     0.7690 ho         1 6RB       0.453000
     58 H24         -4.6140    -0.0900     0.0730 hn         1 6RB       0.337500
     59 H25         -5.2780    -1.9570    -1.9810 h1         1 6RB       0.056200
     60 H26         -4.9820    -2.8640    -0.4810 h1         1 6RB       0.056200
     61 H27         -6.4670    -2.5840     1.4920 ha         1 6RB       0.116500
     62 H28         -8.7420    -1.9830     2.2990 ha         1 6RB       0.114000
     63 H29        -10.2420    -0.5800     0.8850 ha         1 6RB       0.113000
     64 H30         -9.4590     0.2230    -1.3420 ha         1 6RB       0.114000
     65 H31         -7.1860    -0.3730    -2.1560 ha         1 6RB       0.116500
@<TRIPOS>BOND
     1     1     2 1   
     2     1    36 1   
     3     1    37 1   
     4     1    38 1   
     5     2     3 1   
     6     3     4 ar  
     7     3     6 ar  
     8     4     5 ar  
     9     4    39 1   
    10     5    12 ar  
    11     5    40 1   
    12     6     7 ar  
    13     6    11 ar  
    14     7     8 ar  
    15     7    41 1   
    16     8     9 ar  
    17     8    42 1   
    18     9    10 ar  
    19     9    43 1   
    20    10    11 ar  
    21    10    44 1   
    22    11    12 ar  
    23    12    13 1   
    24    13    14 1   
    25    13    45 1   
    26    13    46 1   
    27    14    15 1   
    28    14    17 1   
    29    15    16 1   
    30    15    47 1   
    31    15    48 1   
    32    16    19 2   
    33    16    25 1   
    34    17    18 1   
    35    17    49 1   
    36    17    50 1   
    37    18    19 1   
    38    18    51 1   
    39    18    52 1   
    40    19    20 1   
    41    20    21 1   
    42    20    24 1   
    43    21    22 1   
    44    21    53 1   
    45    21    54 1   
    46    22    23 1   
    47    22    55 1   
    48    22    56 1   
    49    23    57 1   
    50    24    25 2   
    51    25    26 1   
    52    26    27 2   
    53    26    28 1   
    54    28    29 1   
    55    28    58 1   
    56    29    30 1   
    57    29    59 1   
    58    29    60 1   
    59    30    31 ar  
    60    30    35 ar  
    61    31    32 ar  
    62    31    61 1   
    63    32    33 ar  
    64    32    62 1   
    65    33    34 ar  
    66    33    63 1   
    67    34    35 ar  
    68    34    64 1   
    69    35    65 1   
@<TRIPOS>SUBSTRUCTURE
     1 6RB         1 TEMP              0 ****  ****    0 ROOT
