@<TRIPOS>MOLECULE
6RB
   65    69     1     0     0
SMALL
abcg2


@<TRIPOS>ATOM
      1 CAA          8.8770     0.6220    -0.6600 c3         1 6RB       0.147900
      2 OAX          7.9420    -0.0810     0.1330 os         1 6RB      -0.340100
      3 CBB          6.6940    -0.2410    -0.3380 ca         1 6RB       0.160100
      4 CAL          6.2620     0.1990    -1.5620 ca         1 6RB      -0.221000
      5 CAK          4.9260    -0.0200    -1.9540 ca         1 6RB      -0.070000
      6 CBG          5.7920    -0.9240     0.5340 ca         1 6RB      -0.061000
      7 CAN          6.2120    -1.4050     1.7960 ca         1 6RB      -0.080000
      8 CAH          5.3380    -2.0630     2.6200 ca         1 6RB      -0.122000
      9 CAG          4.0060    -2.2640     2.2190 ca         1 6RB      -0.102000
     10 CAM          3.5720    -1.8020     1.0050 ca         1 6RB      -0.097000
     11 CBF          4.4480    -1.1250     0.1220 ca         1 6RB       0.010000
     12 CBA          4.0180    -0.6590    -1.1560 ca         1 6RB      -0.111300
     13 CAT          2.6090    -0.8690    -1.6360 c3         1 6RB       0.221100
     14 NBH          1.6150    -0.1670    -0.8410 n3         1 6RB      -0.727600
     15 CAU          0.2770    -0.5820    -1.2360 c6         1 6RB       0.249100
     16 CBD         -0.7350     0.2230    -0.4950 cc         1 6RB      -0.142300
     17 CAQ          1.7830     1.2750    -0.8670 c6         1 6RB       0.171800
     18 CAP          0.9690     1.9380     0.2430 c6         1 6RB      -0.008100
     19 CBE         -0.3980     1.3660     0.1850 cd         1 6RB      -0.146300
     20 NBI         -1.5310     1.8340     0.7530 na         1 6RB       0.149800
     21 CAR         -1.6960     3.0600     1.5000 c3         1 6RB       0.077600
     22 CAO         -2.0960     4.2070     0.5830 c3         1 6RB       0.141600
     23 OAC         -2.2420     5.3520     1.3850 oh         1 6RB      -0.659000
     24 NAV         -2.5810     1.0810     0.4670 nd         1 6RB      -0.522800
     25 CBC         -2.1190     0.0950    -0.2890 cc         1 6RB       0.208500
     26 CAY         -3.0070    -0.9630    -0.8100 c          1 6RB       0.530600
     27 OAB         -2.5730    -1.8520    -1.5350 o          1 6RB      -0.613100
     28 NAW         -4.2920    -0.8770    -0.4410 ns         1 6RB      -0.495900
     29 CAS         -5.2950    -1.8250    -0.8870 c3         1 6RB       0.156300
     30 CAZ         -6.6450    -1.4190    -0.3670 ca         1 6RB      -0.115300
     31 CAI         -7.1220    -1.9270     0.8390 ca         1 6RB      -0.093000
     32 CAE         -8.3550    -1.5270     1.3360 ca         1 6RB      -0.114000
     33 CAD         -9.1230    -0.6100     0.6330 ca         1 6RB      -0.101000
     34 CAF         -8.6550    -0.0950    -0.5700 ca         1 6RB      -0.114000
     35 CAJ         -7.4220    -0.4980    -1.0650 ca         1 6RB      -0.093000
     36 H1           9.0720     0.1130    -1.6080 h1         1 6RB       0.041700
     37 H2           8.5450     1.6420    -0.8700 h1         1 6RB       0.041700
     38 H3           9.8000     0.6630    -0.0870 h1         1 6RB       0.041700
     39 H4           6.9210     0.7210    -2.2430 ha         1 6RB       0.117000
     40 H5           4.6170     0.3440    -2.9260 ha         1 6RB       0.107000
     41 H6           7.2340    -1.2570     2.1160 ha         1 6RB       0.124000
     42 H7           5.6730    -2.4290     3.5820 ha         1 6RB       0.112000
     43 H8           3.3190    -2.7810     2.8760 ha         1 6RB       0.113000
     44 H9           2.5390    -1.9400     0.7200 ha         1 6RB       0.134000
     45 H10          2.5530    -0.5840    -2.7000 h1         1 6RB       0.040200
     46 H11          2.3640    -1.9360    -1.5990 h1         1 6RB       0.040200
     47 H13          0.1190    -0.4710    -2.3230 h1         1 6RB       0.055700
     48 H14          0.1610    -1.6460    -1.0160 h1         1 6RB       0.055700
     49 H15          2.8360     1.5110    -0.7180 h1         1 6RB       0.040200
     50 H16          1.4930     1.7040    -1.8410 h1         1 6RB       0.040200
     51 H17          1.4300     1.7420     1.2150 hc         1 6RB       0.060700
     52 H18          0.9690     3.0210     0.0970 hc         1 6RB       0.060700
     53 H19         -2.4550     2.8940     2.2640 h1         1 6RB       0.080200
     54 H20         -0.7560     3.2840     2.0040 h1         1 6RB       0.080200
     55 H21         -1.3230     4.3370    -0.1860 h1         1 6RB       0.033200
     56 H22         -3.0260     3.9430     0.0650 h1         1 6RB       0.033200
     57 H23         -2.4500     6.0960     0.8120 ho         1 6RB       0.453000
     58 H24         -4.5750    -0.1090     0.1490 hn         1 6RB       0.337500
     59 H25         -5.3090    -1.8610    -1.9790 h1         1 6RB       0.056200
     60 H26         -5.0430    -2.8290    -0.5380 h1         1 6RB       0.056200
     61 H27         -6.5240    -2.6430     1.3910 ha         1 6RB       0.116500
     62 H28         -8.7150    -1.9340     2.2720 ha         1 6RB       0.114000
     63 H29        -10.0870    -0.2990     1.0170 ha         1 6RB       0.113000
     64 H30         -9.2500     0.6190    -1.1230 ha         1 6RB       0.114000
     65 H31         -7.0650    -0.0970    -2.0060 ha         1 6RB       0.116500
@<TRIPOS>BOND
     1     1     2 1   
     2     1    36 1   
     3     1    37 1   
     4     1    38 1   
     5     2     3 1   
     6     3     4 ar  
     7     3     6 ar  
     8     4     5 ar  
     9     4    39 1   
    10     5    12 ar  
    11     5    40 1   
    12     6     7 ar  
    13     6    11 ar  
    14     7     8 ar  
    15     7    41 1   
    16     8     9 ar  
    17     8    42 1   
    18     9    10 ar  
    19     9    43 1   
    20    10    11 ar  
    21    10    44 1   
    22    11    12 ar  
    23    12    13 1   
    24    13    14 1   
    25    13    45 1   
    26    13    46 1   
    27    14    15 1   
    28    14    17 1   
    29    15    16 1   
    30    15    47 1   
    31    15    48 1   
    32    16    19 2   
    33    16    25 1   
    34    17    18 1   
    35    17    49 1   
    36    17    50 1   
    37    18    19 1   
    38    18    51 1   
    39    18    52 1   
    40    19    20 1   
    41    20    21 1   
    42    20    24 1   
    43    21    22 1   
    44    21    53 1   
    45    21    54 1   
    46    22    23 1   
    47    22    55 1   
    48    22    56 1   
    49    23    57 1   
    50    24    25 2   
    51    25    26 1   
    52    26    27 2   
    53    26    28 1   
    54    28    29 1   
    55    28    58 1   
    56    29    30 1   
    57    29    59 1   
    58    29    60 1   
    59    30    31 ar  
    60    30    35 ar  
    61    31    32 ar  
    62    31    61 1   
    63    32    33 ar  
    64    32    62 1   
    65    33    34 ar  
    66    33    63 1   
    67    34    35 ar  
    68    34    64 1   
    69    35    65 1   
@<TRIPOS>SUBSTRUCTURE
     1 6RB         1 TEMP              0 ****  ****    0 ROOT
