@<TRIPOS>MOLECULE
6RC
   63    68     1     0     0
SMALL
bcc


@<TRIPOS>ATOM
      1 CAZ         -2.6190    -7.8580    -1.6460 c3         1 6RC       0.124700
      2 OAY         -3.4620    -7.0500    -0.8630 os         1 6RC      -0.409600
      3 CAX         -2.8800    -5.8170    -0.5400 c3         1 6RC       0.115400
      4 CAW         -3.8990    -5.0310     0.2710 c3         1 6RC       0.053300
      5 NAS         -3.3750    -3.7410     0.6590 na         1 6RC       0.111400
      6 CAT         -3.6230    -2.5560     0.0820 cc         1 6RC      -0.107300
      7 NAV         -2.4800    -3.6510     1.6400 nc         1 6RC      -0.518800
      8 CAU         -2.1550    -2.3770     1.7060 cd         1 6RC       0.325200
      9 CAR         -2.8500    -1.6200     0.7380 cd         1 6RC      -0.232300
     10 CAF         -2.8340    -0.1860     0.4990 cd         1 6RC      -0.110600
     11 CAE         -3.9400     0.5880     0.3500 cc         1 6RC       0.421200
     12 NAD         -3.9240     1.9210     0.1300 nc         1 6RC      -0.772000
     13 CAC         -2.7860     2.5620     0.0440 cd         1 6RC       0.737200
     14 NAQ         -2.7960     3.8960    -0.2250 nh         1 6RC      -0.754300
     15 CAP         -4.0710     4.5540    -0.4570 c6         1 6RC       0.172800
     16 CAO         -3.8590     5.7690    -1.3430 c6         1 6RC       0.120400
     17 OAN         -2.9040     6.6590    -0.8120 os         1 6RC      -0.400600
     18 CAM         -1.6660     6.0110    -0.6310 c6         1 6RC       0.120400
     19 CAL         -1.7860     4.8120     0.2890 c6         1 6RC       0.172800
     20 CAB         -1.5510     1.8340     0.1620 cd         1 6RC      -0.168600
     21 NAI         -0.2940     2.2140     0.0260 nc         1 6RC      -0.281600
     22 NAA         -1.6280     0.4810     0.3910 na         1 6RC       0.061700
     23 CAG         -0.3510     0.0010     0.3960 cd         1 6RC      -0.178100
     24 CAH          0.4460     1.0950     0.1710 cc         1 6RC       0.031400
     25 CAJ          1.9310     1.1490     0.0760 c3         1 6RC       0.225600
     26 OAK          2.3970    -0.1860     0.1670 os         1 6RC      -0.446100
     27 CBA          3.7120    -0.4040     0.1090 ca         1 6RC       0.668600
     28 CBE          4.1070    -1.7650     0.2190 ca         1 6RC      -0.253300
     29 CBD          5.4350    -2.0450     0.1650 ca         1 6RC      -0.057000
     30 CBC          6.3740    -0.9940     0.0030 ca         1 6RC      -0.180300
     31 CBI          7.7650    -1.2120    -0.0610 ca         1 6RC      -0.096000
     32 CBH          8.6250    -0.1560    -0.2190 ca         1 6RC      -0.139000
     33 CBG          8.1190     1.1540    -0.3180 ca         1 6RC      -0.110000
     34 CBJ          6.7690     1.3910    -0.2570 ca         1 6RC      -0.180300
     35 CBB          5.8650     0.3220    -0.0950 ca         1 6RC       0.445600
     36 NBF          4.5330     0.5870    -0.0390 nb         1 6RC      -0.763000
     37 H1          -1.6800    -8.0920    -1.1300 h1         1 6RC       0.033367
     38 H2          -3.1420    -8.7910    -1.8500 h1         1 6RC       0.033367
     39 H3          -2.3690    -7.3820    -2.6010 h1         1 6RC       0.033367
     40 H4          -1.9590    -5.9490     0.0440 h1         1 6RC       0.038700
     41 H5          -2.6100    -5.2530    -1.4440 h1         1 6RC       0.038700
     42 H6          -4.8020    -4.8620    -0.3140 h1         1 6RC       0.078200
     43 H7          -4.1770    -5.5760     1.1730 h1         1 6RC       0.078200
     44 H8          -4.3120    -2.4520    -0.7410 h4         1 6RC       0.179000
     45 H9          -1.4520    -2.0300     2.4480 h4         1 6RC       0.046100
     46 H10         -4.9170     0.1280     0.4320 h4         1 6RC       0.030100
     47 H11         -4.7550     3.8710    -0.9570 h1         1 6RC       0.067700
     48 H12         -4.5360     4.8470     0.4930 h1         1 6RC       0.067700
     49 H13         -3.5550     5.4330    -2.3440 h1         1 6RC       0.054950
     50 H14         -4.7980     6.3140    -1.4420 h1         1 6RC       0.054950
     51 H15         -1.2530     5.6890    -1.5980 h1         1 6RC       0.054950
     52 H16         -0.9760     6.7360    -0.1960 h1         1 6RC       0.054950
     53 H17         -2.0700     5.1450     1.2960 h1         1 6RC       0.067700
     54 H18         -0.8220     4.3170     0.3560 h1         1 6RC       0.067700
     55 H19         -0.1260    -1.0400     0.5410 h4         1 6RC       0.197000
     56 H20          2.2360     1.6070    -0.8700 h1         1 6RC       0.067700
     57 H21          2.3490     1.7620     0.8800 h1         1 6RC       0.067700
     58 H22          3.3630    -2.5400     0.3410 ha         1 6RC       0.154000
     59 H23          5.7840    -3.0670     0.2440 ha         1 6RC       0.139000
     60 H24          8.1440    -2.2240     0.0160 ha         1 6RC       0.131000
     61 H25          9.6930    -0.3240    -0.2670 ha         1 6RC       0.133000
     62 H26          8.8050     1.9810    -0.4430 ha         1 6RC       0.133000
     63 H27          6.3760     2.3980    -0.3330 ha         1 6RC       0.148000
@<TRIPOS>BOND
     1     1     2 1   
     2     1    37 1   
     3     1    38 1   
     4     1    39 1   
     5     2     3 1   
     6     3     4 1   
     7     3    40 1   
     8     3    41 1   
     9     4     5 1   
    10     4    42 1   
    11     4    43 1   
    12     5     6 1   
    13     5     7 1   
    14     6     9 2   
    15     6    44 1   
    16     7     8 2   
    17     8     9 1   
    18     8    45 1   
    19     9    10 1   
    20    10    11 2   
    21    10    22 1   
    22    11    12 1   
    23    11    46 1   
    24    12    13 2   
    25    13    14 1   
    26    13    20 1   
    27    14    15 1   
    28    14    19 1   
    29    15    16 1   
    30    15    47 1   
    31    15    48 1   
    32    16    17 1   
    33    16    49 1   
    34    16    50 1   
    35    17    18 1   
    36    18    19 1   
    37    18    51 1   
    38    18    52 1   
    39    19    53 1   
    40    19    54 1   
    41    20    21 2   
    42    20    22 1   
    43    21    24 1   
    44    22    23 1   
    45    23    24 2   
    46    23    55 1   
    47    24    25 1   
    48    25    26 1   
    49    25    56 1   
    50    25    57 1   
    51    26    27 1   
    52    27    28 ar  
    53    27    36 ar  
    54    28    29 ar  
    55    28    58 1   
    56    29    30 ar  
    57    29    59 1   
    58    30    31 ar  
    59    30    35 ar  
    60    31    32 ar  
    61    31    60 1   
    62    32    33 ar  
    63    32    61 1   
    64    33    34 ar  
    65    33    62 1   
    66    34    35 ar  
    67    34    63 1   
    68    35    36 ar  
@<TRIPOS>SUBSTRUCTURE
     1 6RC         1 TEMP              0 ****  ****    0 ROOT
