@<TRIPOS>MOLECULE
6RC
   63    68     1     0     0
SMALL
No Charge or Current Charge


@<TRIPOS>ATOM
      1 CAZ         -4.9890    -7.8560    -1.8370 c3         1 6RC       0.147900
      2 OAY         -4.8930    -7.0970    -0.6190 os         1 6RC      -0.456000
      3 CAX         -4.0330    -5.9450    -0.7000 c3         1 6RC       0.138600
      4 CAW         -4.0380    -5.2490     0.6720 c3         1 6RC       0.082600
      5 NAS         -3.2030    -4.0380     0.6960 na         1 6RC       0.132800
      6 CAT         -3.6070    -2.7580     0.3270 cc         1 6RC      -0.140000
      7 NAV         -1.8890    -4.1110     1.1170 nc         1 6RC      -0.518800
      8 CAU         -1.4690    -2.8650     0.9980 cd         1 6RC       0.259900
      9 CAR         -2.4780    -2.0030     0.5030 cd         1 6RC      -0.167000
     10 CAF         -2.4320    -0.5670     0.2550 cd         1 6RC      -0.096000
     11 CAE         -3.6290     0.1290     0.0320 cc         1 6RC       0.355900
     12 NAD         -3.7410     1.5090    -0.1090 nc         1 6RC      -0.772000
     13 CAC         -2.6150     2.2030    -0.0670 cd         1 6RC       0.671900
     14 NAQ         -2.7510     3.5820    -0.2640 nh         1 6RC      -0.754300
     15 CAP         -3.9480     4.1610    -0.9630 c6         1 6RC       0.172800
     16 CAO         -3.6510     5.5720    -1.5520 c6         1 6RC       0.143600
     17 OAN         -3.0910     6.4450    -0.5430 os         1 6RC      -0.447000
     18 CAM         -1.8560     5.9340     0.0120 c6         1 6RC       0.143600
     19 CAL         -2.0850     4.5440     0.6750 c6         1 6RC       0.172800
     20 CAB         -1.3440     1.5650     0.0980 cd         1 6RC      -0.154000
     21 NAI         -0.1180     2.0630    -0.0150 nc         1 6RC      -0.281600
     22 NAA         -1.2780     0.2260     0.3100 na         1 6RC       0.163100
     23 CAG          0.0170    -0.2090     0.1360 cd         1 6RC      -0.228100
     24 CAH          0.7190     0.9720     0.0160 cc         1 6RC       0.031400
     25 CAJ          2.2100     1.1420    -0.1640 c3         1 6RC       0.248800
     26 OAK          2.8860     0.0500     0.4940 os         1 6RC      -0.469300
     27 CBA          4.2550    -0.0400     0.4810 ca         1 6RC       0.603300
     28 CBE          4.8420    -1.1260     1.1440 ca         1 6RC      -0.170000
     29 CBD          6.2380    -1.2560     1.1540 ca         1 6RC      -0.039000
     30 CBC          6.9970    -0.2790     0.4900 ca         1 6RC      -0.115000
     31 CBI          8.4030    -0.3660     0.4730 ca         1 6RC      -0.078000
     32 CBH          9.1590     0.6130    -0.1930 ca         1 6RC      -0.121000
     33 CBG          8.5120     1.6770    -0.8400 ca         1 6RC      -0.092000
     34 CBJ          7.1080     1.7620    -0.8210 ca         1 6RC      -0.097000
     35 CBB          6.3320     0.7920    -0.1600 ca         1 6RC       0.315000
     36 NBF          4.9830     0.9010    -0.1600 nb         1 6RC      -0.763000
     37 H1          -4.0040    -8.2360    -2.1390 h1         1 6RC       0.033367
     38 H2          -5.6590    -8.7140    -1.7000 h1         1 6RC       0.033367
     39 H3          -5.3880    -7.2380    -2.6520 h1         1 6RC       0.033367
     40 H4          -3.0070    -6.2420    -0.9540 h1         1 6RC       0.038700
     41 H5          -4.3910    -5.2450    -1.4660 h1         1 6RC       0.038700
     42 H6          -5.0650    -4.9680     0.9330 h1         1 6RC       0.078200
     43 H7          -3.6730    -5.9460     1.4360 h1         1 6RC       0.078200
     44 H8          -4.6080    -2.5340    -0.0190 h4         1 6RC       0.161000
     45 H9          -0.4630    -2.6370     1.3180 h4         1 6RC       0.046100
     46 H10         -4.5880    -0.3670    -0.0090 h4         1 6RC       0.030100
     47 H11         -4.2710     3.5060    -1.7870 h1         1 6RC       0.067700
     48 H12         -4.7930     4.2380    -0.2630 h1         1 6RC       0.067700
     49 H13         -2.9410     5.4850    -2.3880 h1         1 6RC       0.054950
     50 H14         -4.5790     6.0160    -1.9400 h1         1 6RC       0.054950
     51 H15         -1.1070     5.8470    -0.7890 h1         1 6RC       0.054950
     52 H16         -1.4750     6.6450     0.7590 h1         1 6RC       0.054950
     53 H17         -2.7130     4.6830     1.5670 h1         1 6RC       0.067700
     54 H18         -1.1190     4.1650     1.0310 h1         1 6RC       0.067700
     55 H19          0.3530    -1.2320     0.0880 h4         1 6RC       0.247000
     56 H20          2.4400     1.1540    -1.2380 h1         1 6RC       0.067700
     57 H21          2.5190     2.1050     0.2630 h1         1 6RC       0.067700
     58 H22          4.2130    -1.8560     1.6440 ha         1 6RC       0.136000
     59 H23          6.7130    -2.0910     1.6640 ha         1 6RC       0.121000
     60 H24          8.9100    -1.1890     0.9730 ha         1 6RC       0.113000
     61 H25         10.2440     0.5450    -0.2060 ha         1 6RC       0.115000
     62 H26          9.0960     2.4360    -1.3560 ha         1 6RC       0.115000
     63 H27          6.6140     2.5890    -1.3240 ha         1 6RC       0.130000
@<TRIPOS>BOND
     1     1     2 1   
     2     1    37 1   
     3     1    38 1   
     4     1    39 1   
     5     2     3 1   
     6     3     4 1   
     7     3    40 1   
     8     3    41 1   
     9     4     5 1   
    10     4    42 1   
    11     4    43 1   
    12     5     6 1   
    13     5     7 1   
    14     6     9 2   
    15     6    44 1   
    16     7     8 2   
    17     8     9 1   
    18     8    45 1   
    19     9    10 1   
    20    10    11 2   
    21    10    22 1   
    22    11    12 1   
    23    11    46 1   
    24    12    13 2   
    25    13    14 1   
    26    13    20 1   
    27    14    15 1   
    28    14    19 1   
    29    15    16 1   
    30    15    47 1   
    31    15    48 1   
    32    16    17 1   
    33    16    49 1   
    34    16    50 1   
    35    17    18 1   
    36    18    19 1   
    37    18    51 1   
    38    18    52 1   
    39    19    53 1   
    40    19    54 1   
    41    20    21 2   
    42    20    22 1   
    43    21    24 1   
    44    22    23 1   
    45    23    24 2   
    46    23    55 1   
    47    24    25 1   
    48    25    26 1   
    49    25    56 1   
    50    25    57 1   
    51    26    27 1   
    52    27    28 ar  
    53    27    36 ar  
    54    28    29 ar  
    55    28    58 1   
    56    29    30 ar  
    57    29    59 1   
    58    30    31 ar  
    59    30    35 ar  
    60    31    32 ar  
    61    31    60 1   
    62    32    33 ar  
    63    32    61 1   
    64    33    34 ar  
    65    33    62 1   
    66    34    35 ar  
    67    34    63 1   
    68    35    36 ar  
@<TRIPOS>SUBSTRUCTURE
     1 6RC         1 TEMP              0 ****  ****    0 ROOT
