@<TRIPOS>MOLECULE
6RD
   61    66     1     0     0
SMALL
abcg2


@<TRIPOS>ATOM
      1 CAH         -5.9530     2.3270    -0.8900 ca         1 6RD      -0.098000
      2 CAG         -7.2260     1.8770    -1.2970 ca         1 6RD      -0.113000
      3 CAJ         -7.7140     0.6920    -0.8270 ca         1 6RD      -0.091000
      4 CBC         -6.9540    -0.0900     0.0760 ca         1 6RD      -0.041000
      5 CAI         -7.4530    -1.3150     0.5780 ca         1 6RD      -0.102000
      6 CAC         -6.7190    -2.0630     1.4580 ca         1 6RD      -0.106000
      7 CAE         -5.4520    -1.6110     1.8770 ca         1 6RD      -0.108000
      8 CAL         -4.9420    -0.4310     1.4060 ca         1 6RD      -0.095000
      9 CBE         -5.6730     0.3650     0.4900 ca         1 6RD      -0.018000
     10 CAX         -5.1810     1.6010    -0.0210 ca         1 6RD      -0.097300
     11 CAQ         -3.8150     2.1080     0.3570 c3         1 6RD       0.147300
     12 NAU         -2.7770     1.3120    -0.2600 ns         1 6RD      -0.493900
     13 CAW         -1.6420     0.9440     0.3540 c          1 6RD       0.535600
     14 OAB         -1.3620     1.2380     1.5110 o          1 6RD      -0.616100
     15 CBA         -0.7170     0.1340    -0.4620 cc         1 6RD       0.204500
     16 CAZ          0.5730    -0.2940    -0.1100 cc         1 6RD      -0.140300
     17 CAS          1.4360    -0.0940     1.0890 c6         1 6RD       0.252100
     18 NAT         -1.0440    -0.2920    -1.6750 nd         1 6RD      -0.522800
     19 NBH         -0.0050    -0.9860    -2.1040 na         1 6RD       0.154800
     20 CAA         -0.0160    -1.5610    -3.4280 c3         1 6RD       0.069900
     21 CBB          0.9970    -1.0170    -1.1980 cd         1 6RD      -0.148300
     22 CAO          2.3140    -1.6950    -1.2960 c6         1 6RD      -0.006100
     23 CAP          2.9030    -1.7470     0.1130 c6         1 6RD       0.175800
     24 NBG          2.8050    -0.4500     0.7560 n3         1 6RD      -0.733600
     25 CAR          3.6700    -0.3100     1.9130 c3         1 6RD       0.251000
     26 CAY          5.1160    -0.4100     1.5610 cc         1 6RD      -0.144400
     27 CBF          5.7960     0.2810     0.5060 ca         1 6RD      -0.085800
     28 CAM          5.3870     1.1680    -0.4980 ca         1 6RD      -0.046000
     29 CAF          6.3300     1.6610    -1.3780 ca         1 6RD      -0.151000
     30 CAD          7.6800     1.2810    -1.2850 ca         1 6RD      -0.090000
     31 CAK          8.1110     0.4000    -0.3120 ca         1 6RD      -0.136000
     32 CBD          7.1570    -0.0930     0.5780 ca         1 6RD      -0.052200
     33 NAV          7.2870    -0.9640     1.6200 na         1 6RD      -0.225700
     34 CAN          6.0640    -1.1580     2.2000 cd         1 6RD      -0.163100
     35 HAI         -5.5800     3.2670    -1.2770 ha         1 6RD       0.112000
     36 HAH         -7.8080     2.4740    -1.9860 ha         1 6RD       0.114000
     37 HAK         -8.6900     0.3370    -1.1370 ha         1 6RD       0.113000
     38 HAJ         -8.4300    -1.6520     0.2550 ha         1 6RD       0.111000
     39 HAD         -7.1090    -2.9990     1.8360 ha         1 6RD       0.112000
     40 HAF         -4.8780    -2.2020     2.5790 ha         1 6RD       0.114000
     41 HAM         -3.9690    -0.1090     1.7510 ha         1 6RD       0.128000
     42 HAT         -3.7220     3.1540     0.0520 h1         1 6RD       0.061200
     43 HAU         -3.6710     2.0860     1.4380 h1         1 6RD       0.061200
     44 HBH         -2.8980     1.0490    -1.2270 hn         1 6RD       0.334500
     45 HAX          1.4120     0.9490     1.4100 h1         1 6RD       0.054700
     46 HAY          1.0480    -0.6860     1.9360 h1         1 6RD       0.054700
     47 HAB          0.1540    -0.7950    -4.1830 h1         1 6RD       0.058033
     48 HAC          0.7680    -2.3090    -3.5030 h1         1 6RD       0.058033
     49 HAA         -0.9750    -2.0390    -3.6100 h1         1 6RD       0.058033
     50 HAP          2.2210    -2.7060    -1.6980 hc         1 6RD       0.057700
     51 HAQ          2.9850    -1.1430    -1.9600 hc         1 6RD       0.057700
     52 HAS          2.3960    -2.5340     0.6960 h1         1 6RD       0.040200
     53 HAR          3.9540    -2.0280     0.0480 h1         1 6RD       0.040200
     54 HAV          3.4630     0.6750     2.3440 h1         1 6RD       0.036700
     55 HAW          3.4350    -1.0440     2.7030 h1         1 6RD       0.036700
     56 HAN          4.3440     1.4440    -0.5850 ha         1 6RD       0.132000
     57 HAG          6.0280     2.3470    -2.1600 ha         1 6RD       0.109000
     58 HAE          8.3940     1.6830    -1.9920 ha         1 6RD       0.108000
     59 HAL          9.1500     0.1020    -0.2460 ha         1 6RD       0.110000
     60 HBI          8.1370    -1.4210     1.9010 hn         1 6RD       0.349000
     61 HAO          5.9580    -1.8240     3.0420 h4         1 6RD       0.210000
@<TRIPOS>BOND
     1     1     2 ar  
     2     1    10 ar  
     3     1    35 1   
     4     2     3 ar  
     5     2    36 1   
     6     3     4 ar  
     7     3    37 1   
     8     4     5 ar  
     9     4     9 ar  
    10     5     6 ar  
    11     5    38 1   
    12     6     7 ar  
    13     6    39 1   
    14     7     8 ar  
    15     7    40 1   
    16     8     9 ar  
    17     8    41 1   
    18     9    10 ar  
    19    10    11 1   
    20    11    12 1   
    21    11    42 1   
    22    11    43 1   
    23    12    13 1   
    24    12    44 1   
    25    13    14 2   
    26    13    15 1   
    27    15    16 1   
    28    15    18 2   
    29    16    17 1   
    30    16    21 2   
    31    17    24 1   
    32    17    45 1   
    33    17    46 1   
    34    18    19 1   
    35    19    20 1   
    36    19    21 1   
    37    20    47 1   
    38    20    48 1   
    39    20    49 1   
    40    21    22 1   
    41    22    23 1   
    42    22    50 1   
    43    22    51 1   
    44    23    24 1   
    45    23    52 1   
    46    23    53 1   
    47    24    25 1   
    48    25    26 1   
    49    25    54 1   
    50    25    55 1   
    51    26    27 1   
    52    26    34 2   
    53    27    28 ar  
    54    27    32 ar  
    55    28    29 ar  
    56    28    56 1   
    57    29    30 ar  
    58    29    57 1   
    59    30    31 ar  
    60    30    58 1   
    61    31    32 ar  
    62    31    59 1   
    63    32    33 1   
    64    33    34 1   
    65    33    60 1   
    66    34    61 1   
@<TRIPOS>SUBSTRUCTURE
     1 6RD         1 TEMP              0 ****  ****    0 ROOT
