@<TRIPOS>MOLECULE
6RD
   61    66     1     0     0
SMALL
No Charge or Current Charge


@<TRIPOS>ATOM
      1 CAH         -5.6540     2.5540    -0.5100 ca         1 6RD      -0.098000
      2 CAG         -6.9190     2.4790    -1.1120 ca         1 6RD      -0.113000
      3 CAJ         -7.7160     1.3400    -0.9300 ca         1 6RD      -0.091000
      4 CBC         -7.2500     0.2710    -0.1450 ca         1 6RD      -0.041000
      5 CAI         -8.0620    -0.8670     0.0250 ca         1 6RD      -0.102000
      6 CAC         -7.6130    -1.9470     0.8010 ca         1 6RD      -0.106000
      7 CAE         -6.3500    -1.8930     1.4090 ca         1 6RD      -0.108000
      8 CAL         -5.5340    -0.7610     1.2450 ca         1 6RD      -0.095000
      9 CBE         -5.9730     0.3370     0.4670 ca         1 6RD      -0.018000
     10 CAX         -5.1690     1.4950     0.2830 ca         1 6RD      -0.097300
     11 CAQ         -3.7850     1.6380     0.9120 c3         1 6RD       0.147300
     12 NAU         -2.7930     0.8290     0.2090 ns         1 6RD      -0.493900
     13 CAW         -1.4850     0.6620     0.6090 c          1 6RD       0.535600
     14 OAB         -1.0580     1.2120     1.6190 o          1 6RD      -0.616100
     15 CBA         -0.6960    -0.2410    -0.3060 cc         1 6RD       0.204500
     16 CAZ          0.6670    -0.5580    -0.1020 cc         1 6RD      -0.140300
     17 CAS          1.5810    -0.0940     1.0090 c6         1 6RD       0.252100
     18 NAT         -1.1910    -0.8430    -1.3880 nd         1 6RD      -0.522800
     19 NBH         -0.1090    -1.5680    -1.8760 na         1 6RD       0.154800
     20 CAA         -0.2300    -2.3950    -3.0850 c3         1 6RD       0.069900
     21 CBB          1.0300    -1.4090    -1.0880 cd         1 6RD      -0.148300
     22 CAO          2.4160    -1.9890    -1.2120 c6         1 6RD      -0.006100
     23 CAP          3.1960    -1.7690     0.1170 c6         1 6RD       0.175800
     24 NBG          3.0100    -0.3840     0.6610 n3         1 6RD      -0.733600
     25 CAR          3.9260    -0.0620     1.7800 c3         1 6RD       0.251000
     26 CAY          5.3870    -0.1460     1.4080 cc         1 6RD      -0.144400
     27 CBF          6.0610     0.6090     0.3880 ca         1 6RD      -0.085800
     28 CAM          5.5630     1.5710    -0.5040 ca         1 6RD      -0.046000
     29 CAF          6.4670     2.1560    -1.4160 ca         1 6RD      -0.151000
     30 CAD          7.8290     1.7710    -1.4180 ca         1 6RD      -0.090000
     31 CAK          8.2950     0.7970    -0.5090 ca         1 6RD      -0.136000
     32 CBD          7.3740     0.2330     0.3850 ca         1 6RD      -0.052200
     33 NAV          7.6090    -0.7310     1.3480 na         1 6RD      -0.225700
     34 CAN          6.3620    -0.9610     1.9810 cd         1 6RD      -0.163100
     35 HAI         -5.0470     3.4440    -0.6630 ha         1 6RD       0.112000
     36 HAH         -7.2820     3.3040    -1.7210 ha         1 6RD       0.114000
     37 HAK         -8.6960     1.2900    -1.4000 ha         1 6RD       0.113000
     38 HAJ         -9.0420    -0.9170    -0.4450 ha         1 6RD       0.111000
     39 HAD         -8.2440    -2.8240     0.9300 ha         1 6RD       0.112000
     40 HAF         -6.0020    -2.7310     2.0100 ha         1 6RD       0.114000
     41 HAM         -4.5610    -0.7570     1.7280 ha         1 6RD       0.128000
     42 HAT         -3.4650     2.6880     0.8780 h1         1 6RD       0.061200
     43 HAU         -3.8180     1.3420     1.9690 h1         1 6RD       0.061200
     44 HBH         -3.0690     0.3400    -0.6360 hn         1 6RD       0.334500
     45 HAX          1.4570     0.9850     1.1810 h1         1 6RD       0.054700
     46 HAY          1.3030    -0.6040     1.9440 h1         1 6RD       0.054700
     47 HAB          0.6190    -2.1950    -3.7490 h1         1 6RD       0.058033
     48 HAC         -0.2310    -3.4540    -2.8020 h1         1 6RD       0.058033
     49 HAA         -1.1640    -2.1570    -3.6090 h1         1 6RD       0.058033
     50 HAP          2.3810    -3.0600    -1.4510 hc         1 6RD       0.057700
     51 HAQ          2.9540    -1.4970    -2.0330 hc         1 6RD       0.057700
     52 HAS          2.8520    -2.5070     0.8570 h1         1 6RD       0.040200
     53 HAR          4.2580    -1.9810    -0.0740 h1         1 6RD       0.040200
     54 HAV          3.7310     0.9590     2.1360 h1         1 6RD       0.036700
     55 HAW          3.7370    -0.7380     2.6260 h1         1 6RD       0.036700
     56 HAN          4.5130     1.8530    -0.4940 ha         1 6RD       0.132000
     57 HAG          6.1150     2.9050    -2.1210 ha         1 6RD       0.109000
     58 HAE          8.5200     2.2260    -2.1250 ha         1 6RD       0.108000
     59 HAL          9.3390     0.4930    -0.5050 ha         1 6RD       0.110000
     60 HBI          8.4950    -1.1810     1.5580 hn         1 6RD       0.349000
     61 HAO          6.2570    -1.6820     2.7880 h4         1 6RD       0.210000
@<TRIPOS>BOND
     1     1     2 ar  
     2     1    10 ar  
     3     1    35 1   
     4     2     3 ar  
     5     2    36 1   
     6     3     4 ar  
     7     3    37 1   
     8     4     5 ar  
     9     4     9 ar  
    10     5     6 ar  
    11     5    38 1   
    12     6     7 ar  
    13     6    39 1   
    14     7     8 ar  
    15     7    40 1   
    16     8     9 ar  
    17     8    41 1   
    18     9    10 ar  
    19    10    11 1   
    20    11    12 1   
    21    11    42 1   
    22    11    43 1   
    23    12    13 1   
    24    12    44 1   
    25    13    14 2   
    26    13    15 1   
    27    15    16 1   
    28    15    18 2   
    29    16    17 1   
    30    16    21 2   
    31    17    24 1   
    32    17    45 1   
    33    17    46 1   
    34    18    19 1   
    35    19    20 1   
    36    19    21 1   
    37    20    47 1   
    38    20    48 1   
    39    20    49 1   
    40    21    22 1   
    41    22    23 1   
    42    22    50 1   
    43    22    51 1   
    44    23    24 1   
    45    23    52 1   
    46    23    53 1   
    47    24    25 1   
    48    25    26 1   
    49    25    54 1   
    50    25    55 1   
    51    26    27 1   
    52    26    34 2   
    53    27    28 ar  
    54    27    32 ar  
    55    28    29 ar  
    56    28    56 1   
    57    29    30 ar  
    58    29    57 1   
    59    30    31 ar  
    60    30    58 1   
    61    31    32 ar  
    62    31    59 1   
    63    32    33 1   
    64    33    34 1   
    65    33    60 1   
    66    34    61 1   
@<TRIPOS>SUBSTRUCTURE
     1 6RD         1 TEMP              0 ****  ****    0 ROOT
