@<TRIPOS>MOLECULE
6RE
   42    44     1     0     0
SMALL
No Charge or Current Charge


@<TRIPOS>ATOM
      1 N1          49.7710    40.3460   125.2920 nb         1 6RE      -0.287000
      2 C2          48.9710    40.3030   126.3830 ca         1 6RE       0.192900
      3 N3          49.2790    39.7730   127.5910 nb         1 6RE      -0.220000
      4 C4          50.5100    39.2360   127.7040 ca         1 6RE       0.156500
      5 C5          51.3980    39.2310   126.6590 ca         1 6RE      -0.106600
      6 C6          50.9890    39.8030   125.4360 ca         1 6RE       0.452900
      7 N6          51.7990    39.8500   124.3450 nv         1 6RE      -1.058900
      8 N7          52.6130    38.6460   126.9940 nc         1 6RE      -0.536100
      9 C8          52.4100    38.3030   128.2790 cd         1 6RE       0.391700
     10 N9          51.1310    38.6300   128.7670 na         1 6RE      -0.302300
     11 C1          50.6180    38.4130   130.1230 c5         1 6RE       0.316300
     12 C7          49.1930    37.7380   130.2330 c5         1 6RE       0.146300
     13 O2          48.1650    38.6090   130.7170 oh         1 6RE      -0.660000
     14 C3          49.4210    36.6080   131.2840 c5         1 6RE       0.100300
     15 O3          49.2070    37.1100   132.6200 oh         1 6RE      -0.670000
     16 C9          50.9160    36.2530   131.0060 c5         1 6RE       0.135300
     17 O4          51.5260    37.5510   130.8570 os         1 6RE      -0.449000
     18 C10         51.1890    35.3870   129.7430 c3         1 6RE      -0.128400
     19 C11         50.6870    33.9350   129.8590 c3         1 6RE       0.063600
     20 N2          51.0070    33.1920   128.6240 nu         1 6RE      -0.894000
     21 C12         52.0290    32.4020   128.3630 cz         1 6RE       0.934600
     22 N4          52.0280    31.7170   127.2600 nv         1 6RE      -0.607300
     23 N10         53.0670    32.3750   129.1470 nv         1 6RE      -0.607300
     24 H2          47.9790    40.7400   126.2800 h5         1 6RE       0.056100
     25 HN6         51.5760    40.5200   123.6140 hn         1 6RE       0.510500
     26 HN6A        52.7860    39.6510   124.4940 hn         1 6RE       0.510500
     27 H8          53.1430    37.8170   128.9130 h5         1 6RE       0.047800
     28 H1          50.5980    39.4040   130.5960 h2         1 6RE       0.142700
     29 H7          48.9000    37.3090   129.2650 h1         1 6RE       0.037700
     30 HO2         48.1640    38.4110   131.6890 ho         1 6RE       0.517000
     31 H3          48.7590    35.7510   131.0950 h1         1 6RE       0.043700
     32 HO3         49.4490    36.3910   133.2510 ho         1 6RE       0.505000
     33 H4          51.3750    35.7490   131.8680 h1         1 6RE       0.072700
     34 H5          52.2700    35.3690   129.5570 hc         1 6RE       0.069200
     35 H5'A        50.7340    35.8370   128.8530 hc         1 6RE       0.069200
     36 H6'A        51.1340    33.4550   130.7430 h1         1 6RE       0.078700
     37 H6          49.5980    33.9380   130.0120 h1         1 6RE       0.078700
     38 HN7         50.3100    33.2500   127.8890 hn         1 6RE       0.371000
     39 HN9         52.7880    31.1060   127.0130 hn         1 6RE       0.381750
     40 HN9A        53.1180    32.9750   129.9510 hn         1 6RE       0.381750
     41 HN9B        53.8810    31.8200   128.9400 hn         1 6RE       0.381750
     42 HN9C        51.2280    31.7050   126.6510 hn         1 6RE       0.381750
@<TRIPOS>BOND
     1     1     2 ar  
     2     1     6 ar  
     3     2     3 ar  
     4     2    24 1   
     5     3     4 ar  
     6     4     5 ar  
     7     4    10 1   
     8     5     6 ar  
     9     5     8 1   
    10     6     7 1   
    11     7    25 1   
    12     7    26 1   
    13     8     9 2   
    14     9    10 1   
    15     9    27 1   
    16    10    11 1   
    17    11    12 1   
    18    11    17 1   
    19    11    28 1   
    20    12    13 1   
    21    12    14 1   
    22    12    29 1   
    23    13    30 1   
    24    14    15 1   
    25    14    16 1   
    26    14    31 1   
    27    15    32 1   
    28    16    17 1   
    29    16    18 1   
    30    16    33 1   
    31    18    19 1   
    32    18    34 1   
    33    18    35 1   
    34    19    20 1   
    35    19    36 1   
    36    19    37 1   
    37    20    21 2   
    38    20    38 1   
    39    21    22 1   
    40    21    23 1   
    41    22    39 1   
    42    22    42 1   
    43    23    40 1   
    44    23    41 1   
@<TRIPOS>SUBSTRUCTURE
     1 6RE         1 TEMP              0 ****  ****    0 ROOT
