@<TRIPOS>MOLECULE
6RE
   42    44     1     0     0
SMALL
abcg2


@<TRIPOS>ATOM
      1 N1          51.0190    42.2310   126.4150 nb         1 6RE      -0.287000
      2 C2          50.8490    42.0950   127.7340 ca         1 6RE       0.192900
      3 N3          50.6380    40.9770   128.4280 nb         1 6RE      -0.220000
      4 C4          50.6090    39.8990   127.6390 ca         1 6RE       0.156500
      5 C5          50.7740    39.8880   126.2550 ca         1 6RE      -0.106600
      6 C6          50.9860    41.1340   125.6340 ca         1 6RE       0.452900
      7 N6          51.1410    41.2720   124.3080 nv         1 6RE      -1.058900
      8 N7          50.6970    38.5930   125.7680 nc         1 6RE      -0.536100
      9 C8          50.4870    37.8520   126.8260 cd         1 6RE       0.391700
     10 N9          50.4180    38.5810   127.9940 na         1 6RE      -0.302300
     11 C1          50.2390    38.0790   129.3370 c5         1 6RE       0.316300
     12 C7          48.9830    37.2290   129.5300 c5         1 6RE       0.146300
     13 O2          47.8640    38.0660   129.6970 oh         1 6RE      -0.660000
     14 C3          49.3820    36.3540   130.7220 c5         1 6RE       0.100300
     15 O3          49.2210    37.1200   131.9100 oh         1 6RE      -0.670000
     16 C9          50.8590    36.0750   130.4130 c5         1 6RE       0.135300
     17 O4          51.3260    37.2380   129.6790 os         1 6RE      -0.449000
     18 C10         51.1250    34.8180   129.5940 c3         1 6RE      -0.128400
     19 C11         51.0190    33.5480   130.4390 c3         1 6RE       0.063600
     20 N2          51.3100    32.3400   129.6760 nu         1 6RE      -0.894000
     21 C12         52.5250    31.8640   129.4080 cz         1 6RE       0.934600
     22 N4          52.6540    30.8170   128.5900 nv         1 6RE      -0.607300
     23 N10         53.6130    32.4110   129.9450 nv         1 6RE      -0.607300
     24 H2          50.8890    43.0140   128.3090 h5         1 6RE       0.056100
     25 HN6         51.3690    42.1760   123.9270 hn         1 6RE       0.510500
     26 HN6A        51.2020    40.4640   123.7130 hn         1 6RE       0.510500
     27 H8          50.3880    36.7780   126.8280 h5         1 6RE       0.047800
     28 H1          50.2000    38.9570   129.9850 h2         1 6RE       0.142700
     29 H7          48.8550    36.5770   128.6610 h1         1 6RE       0.037700
     30 HO2         47.0620    37.5360   129.6060 ho         1 6RE       0.517000
     31 H3          48.7890    35.4370   130.7690 h1         1 6RE       0.043700
     32 HO3         49.5090    36.5800   132.6570 ho         1 6RE       0.505000
     33 H4          51.4270    36.0350   131.3460 h1         1 6RE       0.072700
     34 H5          52.1330    34.8980   129.1830 hc         1 6RE       0.069200
     35 H5'A        50.4340    34.7540   128.7500 hc         1 6RE       0.069200
     36 H6'A        51.6840    33.6020   131.3030 h1         1 6RE       0.078700
     37 H6          50.0130    33.4240   130.8350 h1         1 6RE       0.078700
     38 HN7         50.5350    31.9060   129.1980 hn         1 6RE       0.371000
     39 HN9         53.5550    30.3980   128.4300 hn         1 6RE       0.381750
     40 HN9A        53.5620    33.1990   130.5660 hn         1 6RE       0.381750
     41 HN9B        54.5240    32.0250   129.7570 hn         1 6RE       0.381750
     42 HN9C        51.8460    30.3660   128.1970 hn         1 6RE       0.381750
@<TRIPOS>BOND
     1     1     2 ar  
     2     1     6 ar  
     3     2     3 ar  
     4     2    24 1   
     5     3     4 ar  
     6     4     5 ar  
     7     4    10 1   
     8     5     6 ar  
     9     5     8 1   
    10     6     7 1   
    11     7    25 1   
    12     7    26 1   
    13     8     9 2   
    14     9    10 1   
    15     9    27 1   
    16    10    11 1   
    17    11    12 1   
    18    11    17 1   
    19    11    28 1   
    20    12    13 1   
    21    12    14 1   
    22    12    29 1   
    23    13    30 1   
    24    14    15 1   
    25    14    16 1   
    26    14    31 1   
    27    15    32 1   
    28    16    17 1   
    29    16    18 1   
    30    16    33 1   
    31    18    19 1   
    32    18    34 1   
    33    18    35 1   
    34    19    20 1   
    35    19    36 1   
    36    19    37 1   
    37    20    21 2   
    38    20    38 1   
    39    21    22 1   
    40    21    23 1   
    41    22    39 1   
    42    22    42 1   
    43    23    40 1   
    44    23    41 1   
@<TRIPOS>SUBSTRUCTURE
     1 6RE         1 TEMP              0 ****  ****    0 ROOT
