@<TRIPOS>MOLECULE
6RF
   62    66     1     0     0
SMALL
bcc


@<TRIPOS>ATOM
      1 C23          4.6420    -2.1450     0.4470 c6         1 6RF       0.058000
      2 C24          5.6590    -1.6390     1.4650 c6         1 6RF       0.132300
      3 N7           5.1000    -1.4370     2.7900 n7         1 6RF      -0.790200
      4 C25          3.9080    -0.6120     2.7380 c6         1 6RF       0.132300
      5 C26          2.8630    -1.1050     1.7390 c6         1 6RF       0.058000
      6 N6           3.4760    -1.2750     0.4320 n          1 6RF      -0.462800
      7 C13          3.0740    -0.6720    -0.6920 c          1 6RF       0.686700
      8 O1           3.6540    -0.7430    -1.7670 o          1 6RF      -0.590100
      9 C9           1.8140     0.1450    -0.6160 ca         1 6RF      -0.083600
     10 C8           0.5910    -0.4700    -0.7110 cp         1 6RF      -0.109300
     11 C12          0.5030    -1.9490    -0.7770 cp         1 6RF      -0.062000
     12 C14          0.0450    -2.6760     0.3210 ca         1 6RF      -0.108000
     13 C15         -0.0150    -4.0610     0.2690 ca         1 6RF      -0.128500
     14 C16          0.3780    -4.7330    -0.8810 ca         1 6RF      -0.117000
     15 C17          0.8310    -4.0140    -1.9780 ca         1 6RF      -0.128500
     16 C18          0.8960    -2.6290    -1.9270 ca         1 6RF      -0.108000
     17 C2           1.8980     1.5560    -0.5230 ca         1 6RF      -0.101300
     18 C3           3.1200     2.2540    -0.4060 ca         1 6RF      -0.156000
     19 C4           3.0860     3.6110    -0.2920 ca         1 6RF       0.144900
     20 F1           4.2350     4.2890    -0.1770 f          1 6RF      -0.135900
     21 C5           1.8910     4.3460    -0.2870 ca         1 6RF      -0.153000
     22 C6           0.7040     3.6790    -0.3970 ca         1 6RF      -0.138300
     23 C1           0.6800     2.2720    -0.5160 ca         1 6RF       0.393600
     24 N1          -0.5140     1.6500    -0.6180 nb         1 6RF      -0.677000
     25 C7          -0.5710     0.3530    -0.7130 ca         1 6RF       0.427600
     26 C10         -1.9490    -0.2520    -0.8870 c3         1 6RF       0.192200
     27 C11         -2.2110    -0.5480    -2.3650 c3         1 6RF      -0.106100
     28 N2          -2.9210     0.6720    -0.3480 nu         1 6RF      -0.853900
     29 C19         -4.1300     0.3220     0.0830 ca         1 6RF       0.785200
     30 N4          -4.4730    -0.9720     0.0360 nb         1 6RF      -0.838000
     31 C22         -5.6780    -1.2790     0.4800 ca         1 6RF       0.749900
     32 N3          -6.6060    -0.4790     0.9670 nb         1 6RF      -0.836000
     33 C21         -6.2970     0.8250     1.0290 ca         1 6RF       0.784200
     34 N5          -7.2200     1.6470     1.5220 nv         1 6RF      -0.957500
     35 C20         -5.0370     1.2840     0.5890 ca         1 6RF      -0.445600
     36 C27         -4.6920     2.6470     0.6540 cg         1 6RF       0.259800
     37 N8          -4.4070     3.7670     0.7080 n1         1 6RF      -0.404800
     38 H1           5.0780    -2.1930    -0.5480 h1         1 6RF       0.060950
     39 H2           4.3130    -3.1540     0.7190 h1         1 6RF       0.060950
     40 H3           6.4880    -2.3450     1.5280 h1         1 6RF       0.063450
     41 H4           6.0720    -0.6880     1.1130 h1         1 6RF       0.063450
     42 H5           4.8700    -2.3340     3.2010 hn         1 6RF       0.351800
     43 H7           3.4570    -0.5620     3.7300 h1         1 6RF       0.063450
     44 H8           4.2020     0.4060     2.4640 h1         1 6RF       0.063450
     45 H9           2.4530    -2.0670     2.0660 h1         1 6RF       0.060950
     46 H10          2.0360    -0.3990     1.6880 h1         1 6RF       0.060950
     47 H11         -0.2590    -2.1590     1.2230 ha         1 6RF       0.141000
     48 H12         -0.3670    -4.6140     1.1310 ha         1 6RF       0.135500
     49 H13          0.3300    -5.8130    -0.9210 ha         1 6RF       0.134000
     50 H14          1.1370    -4.5310    -2.8780 ha         1 6RF       0.135500
     51 H15          1.2500    -2.0740    -2.7870 ha         1 6RF       0.141000
     52 H16          4.0700     1.7340    -0.4080 ha         1 6RF       0.164000
     53 H17          1.9210     5.4240    -0.1970 ha         1 6RF       0.158000
     54 H18         -0.2350     4.2170    -0.3940 ha         1 6RF       0.159000
     55 H19         -2.0120    -1.1840    -0.3270 h1         1 6RF       0.094700
     56 H20         -3.2100    -0.9640    -2.4890 hc         1 6RF       0.052033
     57 H21         -2.1360     0.3630    -2.9590 hc         1 6RF       0.052033
     58 H22         -1.4970    -1.2720    -2.7560 hc         1 6RF       0.052033
     59 H23         -2.6350     1.6430    -0.3430 hn         1 6RF       0.475800
     60 H24         -5.9390    -2.3320     0.4380 h5         1 6RF       0.043100
     61 H25         -8.1100     1.2750     1.8060 hn         1 6RF       0.450300
     62 H26         -7.0880     2.6410     1.5830 hn         1 6RF       0.450300
@<TRIPOS>BOND
     1     1     2 1   
     2     1     6 1   
     3     1    38 1   
     4     1    39 1   
     5     2     3 1   
     6     2    40 1   
     7     2    41 1   
     8     3     4 1   
     9     3    42 1   
    10     4     5 1   
    11     4    43 1   
    12     4    44 1   
    13     5     6 1   
    14     5    45 1   
    15     5    46 1   
    16     6     7 1   
    17     7     8 2   
    18     7     9 1   
    19     9    10 ar  
    20     9    17 ar  
    21    10    11 1   
    22    10    25 ar  
    23    11    12 ar  
    24    11    16 ar  
    25    12    13 ar  
    26    12    47 1   
    27    13    14 ar  
    28    13    48 1   
    29    14    15 ar  
    30    14    49 1   
    31    15    16 ar  
    32    15    50 1   
    33    16    51 1   
    34    17    18 ar  
    35    17    23 ar  
    36    18    19 ar  
    37    18    52 1   
    38    19    20 1   
    39    19    21 ar  
    40    21    22 ar  
    41    21    53 1   
    42    22    23 ar  
    43    22    54 1   
    44    23    24 ar  
    45    24    25 ar  
    46    25    26 1   
    47    26    27 1   
    48    26    28 1   
    49    26    55 1   
    50    27    56 1   
    51    27    57 1   
    52    27    58 1   
    53    28    29 1   
    54    28    59 1   
    55    29    30 ar  
    56    29    35 ar  
    57    30    31 ar  
    58    31    32 ar  
    59    31    60 1   
    60    32    33 ar  
    61    33    34 1   
    62    33    35 ar  
    63    34    61 1   
    64    34    62 1   
    65    35    36 1   
    66    36    37 3   
@<TRIPOS>SUBSTRUCTURE
     1 6RF         1 TEMP              0 ****  ****    0 ROOT
