@<TRIPOS>MOLECULE
6RF
   62    66     1     0     0
SMALL
No Charge or Current Charge


@<TRIPOS>ATOM
      1 C23          4.5790    -2.3300     0.4980 c6         1 6RF       0.058000
      2 C24          5.6430    -1.8500     1.5240 c6         1 6RF       0.132300
      3 N7           5.0470    -1.6230     2.8710 n7         1 6RF      -0.845400
      4 C25          3.8870    -0.6890     2.8140 c6         1 6RF       0.132300
      5 C26          2.8140    -1.1620     1.7920 c6         1 6RF       0.058000
      6 N6           3.4150    -1.4030     0.4480 n          1 6RF      -0.395800
      7 C13          3.1590    -0.5760    -0.6710 c          1 6RF       0.619700
      8 O1           3.8990    -0.5750    -1.6470 o          1 6RF      -0.590100
      9 C9           1.9190     0.2820    -0.6470 ca         1 6RF      -0.083600
     10 C8           0.6740    -0.4020    -0.7060 cp         1 6RF      -0.044000
     11 C12          0.6060    -1.8920    -0.7990 cp         1 6RF      -0.062000
     12 C14          0.1380    -2.6700     0.2870 ca         1 6RF      -0.090000
     13 C15          0.0890    -4.0720     0.2000 ca         1 6RF      -0.110500
     14 C16          0.5100    -4.7190    -0.9730 ca         1 6RF      -0.099000
     15 C17          0.9810    -3.9630    -2.0600 ca         1 6RF      -0.110500
     16 C18          1.0300    -2.5610    -1.9720 ca         1 6RF      -0.090000
     17 C2           1.9520     1.6920    -0.6010 ca         1 6RF      -0.036000
     18 C3           3.1740     2.3990    -0.5360 ca         1 6RF      -0.138000
     19 C4           3.1720     3.8000    -0.4810 ca         1 6RF       0.180000
     20 F1           4.3430     4.4710    -0.4190 f          1 6RF      -0.171000
     21 C5           1.9630     4.5060    -0.4870 ca         1 6RF      -0.135000
     22 C6           0.7460     3.8040    -0.5470 ca         1 6RF      -0.055000
     23 C1           0.7210     2.3970    -0.6030 ca         1 6RF       0.263000
     24 N1          -0.4690     1.7600    -0.6580 nb         1 6RF      -0.677000
     25 C7          -0.5060     0.3970    -0.7120 ca         1 6RF       0.362300
     26 C10         -1.9250    -0.2320    -0.8250 c3         1 6RF       0.192200
     27 C11         -2.2770    -0.5490    -2.2940 c3         1 6RF      -0.106100
     28 N2          -2.9790     0.6440    -0.2490 nu         1 6RF      -0.909100
     29 C19         -4.2500     0.3020     0.2000 ca         1 6RF       0.456900
     30 N4          -4.5680    -1.0030     0.1690 nb         1 6RF      -0.312000
     31 C22         -5.7940    -1.3360     0.6090 ca         1 6RF       0.223900
     32 N3          -6.7310    -0.4900     1.0770 nb         1 6RF      -0.310000
     33 C21         -6.3970     0.8030     1.1030 ca         1 6RF       0.455900
     34 N5          -7.3730     1.6160     1.5830 nv         1 6RF      -1.067900
     35 C20         -5.1500     1.2690     0.6720 ca         1 6RF      -0.315000
     36 C27         -4.8100     2.6580     0.7100 cg         1 6RF       0.349000
     37 N8          -4.5220     3.7880     0.7330 n1         1 6RF      -0.494000
     38 H1           5.0450    -2.4300    -0.4920 h1         1 6RF       0.060950
     39 H2           4.2220    -3.3300     0.7850 h1         1 6RF       0.060950
     40 H3           6.4510    -2.5930     1.5920 h1         1 6RF       0.063450
     41 H4           6.0900    -0.9120     1.1590 h1         1 6RF       0.063450
     42 H5           4.7140    -2.5270     3.2300 hn         1 6RF       0.407000
     43 H7           3.4300    -0.5980     3.8110 h1         1 6RF       0.063450
     44 H8           4.2380     0.3120     2.5220 h1         1 6RF       0.063450
     45 H9           2.3620    -2.0980     2.1500 h1         1 6RF       0.060950
     46 H10          2.0120    -0.4140     1.7490 h1         1 6RF       0.060950
     47 H11         -0.1840    -2.1810     1.2030 ha         1 6RF       0.123000
     48 H12         -0.2730    -4.6560     1.0440 ha         1 6RF       0.117500
     49 H13          0.4730    -5.8040    -1.0400 ha         1 6RF       0.116000
     50 H14          1.3100    -4.4630    -2.9680 ha         1 6RF       0.117500
     51 H15          1.3980    -1.9850    -2.8180 ha         1 6RF       0.123000
     52 H16          4.1290     1.8810    -0.5260 ha         1 6RF       0.146000
     53 H17          1.9680     5.5920    -0.4430 ha         1 6RF       0.140000
     54 H18         -0.1920     4.3540    -0.5500 ha         1 6RF       0.141000
     55 H19         -1.9110    -1.1760    -0.2660 h1         1 6RF       0.094700
     56 H20         -3.2540    -1.0390    -2.3680 hc         1 6RF       0.052033
     57 H21         -2.3040     0.3690    -2.8930 hc         1 6RF       0.052033
     58 H22         -1.5310    -1.2210    -2.7330 hc         1 6RF       0.052033
     59 H23         -2.7090     1.6250    -0.1480 hn         1 6RF       0.531000
     60 H24         -6.0550    -2.3930     0.5840 h5         1 6RF       0.043100
     61 H25         -8.3080     1.2280     1.6790 hn         1 6RF       0.505500
     62 H26         -7.3140     2.6160     1.4100 hn         1 6RF       0.505500
@<TRIPOS>BOND
     1     1     2 1   
     2     1     6 1   
     3     1    38 1   
     4     1    39 1   
     5     2     3 1   
     6     2    40 1   
     7     2    41 1   
     8     3     4 1   
     9     3    42 1   
    10     4     5 1   
    11     4    43 1   
    12     4    44 1   
    13     5     6 1   
    14     5    45 1   
    15     5    46 1   
    16     6     7 1   
    17     7     8 2   
    18     7     9 1   
    19     9    10 ar  
    20     9    17 ar  
    21    10    11 1   
    22    10    25 ar  
    23    11    12 ar  
    24    11    16 ar  
    25    12    13 ar  
    26    12    47 1   
    27    13    14 ar  
    28    13    48 1   
    29    14    15 ar  
    30    14    49 1   
    31    15    16 ar  
    32    15    50 1   
    33    16    51 1   
    34    17    18 ar  
    35    17    23 ar  
    36    18    19 ar  
    37    18    52 1   
    38    19    20 1   
    39    19    21 ar  
    40    21    22 ar  
    41    21    53 1   
    42    22    23 ar  
    43    22    54 1   
    44    23    24 ar  
    45    24    25 ar  
    46    25    26 1   
    47    26    27 1   
    48    26    28 1   
    49    26    55 1   
    50    27    56 1   
    51    27    57 1   
    52    27    58 1   
    53    28    29 1   
    54    28    59 1   
    55    29    30 ar  
    56    29    35 ar  
    57    30    31 ar  
    58    31    32 ar  
    59    31    60 1   
    60    32    33 ar  
    61    33    34 1   
    62    33    35 ar  
    63    34    61 1   
    64    34    62 1   
    65    35    36 1   
    66    36    37 3   
@<TRIPOS>SUBSTRUCTURE
     1 6RF         1 TEMP              0 ****  ****    0 ROOT
