@<TRIPOS>MOLECULE
6RG
   46    49     1     0     0
SMALL
No Charge or Current Charge


@<TRIPOS>ATOM
      1 N1          -0.5950    -0.4930    -0.0190 nb         1 6RG      -0.303000
      2 C2          -1.7800    -1.1330    -0.0230 cp         1 6RG       0.253500
      3 N3          -2.9790    -0.5140    -0.0310 nb         1 6RG      -0.233000
      4 C4          -3.0130     0.8330    -0.0350 ca         1 6RG       0.110000
      5 C5          -1.8110     1.5790    -0.0310 ca         1 6RG      -0.228000
      6 C6          -0.6040     0.8490    -0.0230 ca         1 6RG       0.423900
      7 CAB          7.0140    -0.0150     0.0150 ca         1 6RG      -0.107000
      8 CAC         -1.7350    -5.4970    -0.0100 ca         1 6RG      -0.095000
      9 CAD          6.3880     0.2930    -1.2050 ca         1 6RG      -0.108000
     10 CAE          6.3710     0.2860     1.2270 ca         1 6RG      -0.108000
     11 CAF         -0.5300    -4.7800    -0.0060 ca         1 6RG      -0.131000
     12 CAG         -2.9550    -4.8050    -0.0170 ca         1 6RG      -0.131000
     13 CAH          5.1210     0.9020    -1.2130 ca         1 6RG      -0.103000
     14 CAI          5.1040     0.8950     1.2200 ca         1 6RG      -0.103000
     15 CAJ         -0.5420    -3.3740    -0.0110 ca         1 6RG      -0.066000
     16 CAK         -2.9720    -3.3990    -0.0220 ca         1 6RG      -0.066000
     17 CAL         -3.1000     3.6480    -0.0440 ca         1 6RG      -0.191000
     18 CAM         -1.8590     2.9910    -0.0360 ca         1 6RG      -0.028000
     19 CAN         -4.2430     1.5110    -0.0430 ca         1 6RG      -0.203000
     20 CAO          1.9650     0.8160    -0.0110 c3         1 6RG       0.234800
     21 CAP          3.0970     1.8610    -0.0080 c3         1 6RG      -0.051100
     22 NAS          0.6430     1.4700    -0.0190 nu         1 6RG      -0.932100
     23 CAT         -4.2880     2.9090    -0.0470 ca         1 6RG       0.339000
     24 CAU          4.4730     1.2080    -0.0000 ca         1 6RG      -0.083300
     25 CAV         -1.7650    -2.6430    -0.0190 cp         1 6RG      -0.150500
     26 HNAA        -5.5230     4.5580     0.1130 hn         1 6RG       0.464500
     27 HNAB        -6.3470     3.0270     0.1170 hn         1 6RG       0.464500
     28 HAC         -1.7240    -6.5850    -0.0060 ha         1 6RG       0.109000
     29 HAD          6.8840     0.0590    -2.1450 ha         1 6RG       0.114000
     30 HAE          6.8530     0.0470     2.1730 ha         1 6RG       0.114000
     31 HAF          0.4180    -5.3130    -0.0010 ha         1 6RG       0.111000
     32 HAG         -3.8920    -5.3580    -0.0200 ha         1 6RG       0.111000
     33 HAH          4.6440     1.1350    -2.1620 ha         1 6RG       0.112000
     34 HAI          4.6130     1.1230     2.1640 ha         1 6RG       0.112000
     35 HAJ          0.4130    -2.8530    -0.0080 ha         1 6RG       0.133500
     36 HAK         -3.9370    -2.8980    -0.0280 ha         1 6RG       0.133500
     37 HAL         -3.1320     4.7340    -0.0490 ha         1 6RG       0.112000
     38 HAM         -0.9520     3.5900    -0.0340 ha         1 6RG       0.101000
     39 HAN         -5.1680     0.9420    -0.0470 ha         1 6RG       0.132000
     40 HAO          2.0730     0.1740    -0.8970 h1         1 6RG       0.060700
     41 HAOA         2.0650     0.1780     0.8780 h1         1 6RG       0.060700
     42 HAP          2.9930     2.5080    -0.8880 hc         1 6RG       0.049700
     43 HAPA         2.9850     2.5110     0.8690 hc         1 6RG       0.049700
     44 HNAS         0.6260     2.4880    -0.0220 hn         1 6RG       0.494000
     45 NAA         -5.4930     3.5540    -0.0540 nv         1 6RG      -1.091000
     46 HAB          7.9940    -0.4870     0.0200 ha         1 6RG       0.114000
@<TRIPOS>BOND
     1     1     2 ar  
     2     1     6 ar  
     3     2     3 ar  
     4     2    25 1   
     5     3     4 ar  
     6     4     5 ar  
     7     4    19 ar  
     8     5     6 ar  
     9     5    18 ar  
    10     6    22 1   
    11     7     9 ar  
    12     7    10 ar  
    13     7    46 1   
    14     8    11 ar  
    15     8    12 ar  
    16     8    28 1   
    17     9    13 ar  
    18     9    29 1   
    19    10    14 ar  
    20    10    30 1   
    21    11    15 ar  
    22    11    31 1   
    23    12    16 ar  
    24    12    32 1   
    25    13    24 ar  
    26    13    33 1   
    27    14    24 ar  
    28    14    34 1   
    29    15    25 ar  
    30    15    35 1   
    31    16    25 ar  
    32    16    36 1   
    33    17    18 ar  
    34    17    23 ar  
    35    17    37 1   
    36    18    38 1   
    37    19    23 ar  
    38    19    39 1   
    39    20    21 1   
    40    20    22 1   
    41    20    40 1   
    42    20    41 1   
    43    21    24 1   
    44    21    42 1   
    45    21    43 1   
    46    22    44 1   
    47    23    45 1   
    48    26    45 1   
    49    27    45 1   
@<TRIPOS>SUBSTRUCTURE
     1 6RG         1 TEMP              0 ****  ****    0 ROOT
