@<TRIPOS>MOLECULE
6RG
   46    49     1     0     0
SMALL
bcc


@<TRIPOS>ATOM
      1 N1          -0.5380    -0.4230    -0.0030 nb         1 6RG      -0.829000
      2 C2          -1.7180    -1.0630    -0.0130 cp         1 6RG       0.779500
      3 N3          -2.9040    -0.5130    -0.0280 nb         1 6RG      -0.759000
      4 C4          -2.9550     0.8450    -0.0340 ca         1 6RG       0.503600
      5 C5          -1.7800     1.6270    -0.0240 ca         1 6RG      -0.358600
      6 C6          -0.5460     0.8980    -0.0070 ca         1 6RG       0.752200
      7 CAB          6.8190    -0.2260    -0.0040 ca         1 6RG      -0.125000
      8 CAC         -1.5300    -5.3380    -0.0090 ca         1 6RG      -0.113000
      9 CAD          6.2130     0.1290    -1.2020 ca         1 6RG      -0.126000
     10 CAE          6.2070     0.1060     1.1980 ca         1 6RG      -0.126000
     11 CAF         -0.3610    -4.5880    -0.0020 ca         1 6RG      -0.149000
     12 CAG         -2.7610    -4.6910    -0.0170 ca         1 6RG      -0.149000
     13 CAH          5.0020     0.8090    -1.1960 ca         1 6RG      -0.121000
     14 CAI          4.9970     0.7870     1.1990 ca         1 6RG      -0.121000
     15 CAJ         -0.4210    -3.2020    -0.0030 ca         1 6RG      -0.084000
     16 CAK         -2.8210    -3.3070    -0.0180 ca         1 6RG      -0.084000
     17 CAL         -3.1270     3.6310    -0.0520 ca         1 6RG      -0.209000
     18 CAM         -1.9000     3.0280    -0.0300 ca         1 6RG      -0.046000
     19 CAN         -4.2090     1.4730    -0.0520 ca         1 6RG      -0.286300
     20 CAO          1.9060     0.8340     0.0040 c3         1 6RG       0.234800
     21 CAP          3.0480     1.8450     0.0070 c3         1 6RG      -0.051100
     22 NAS          0.6350     1.5260     0.0020 nu         1 6RG      -0.876900
     23 CAT         -4.3160     2.8560    -0.0680 ca         1 6RG       0.200600
     24 CAU          4.3800     1.1470     0.0030 ca         1 6RG      -0.083300
     25 CAV         -1.6510    -2.5450    -0.0110 cp         1 6RG      -0.150500
     26 HNAA        -5.5700     4.4480     0.1310 hn         1 6RG       0.409300
     27 HNAB        -6.3430     2.9510     0.1090 hn         1 6RG       0.409300
     28 HAC         -1.4840    -6.4190    -0.0100 ha         1 6RG       0.127000
     29 HAD          6.6840    -0.1200    -2.1440 ha         1 6RG       0.132000
     30 HAE          6.6750    -0.1600     2.1370 ha         1 6RG       0.132000
     31 HAF          0.6010    -5.0840     0.0040 ha         1 6RG       0.129000
     32 HAG         -3.6760    -5.2690    -0.0230 ha         1 6RG       0.129000
     33 HAH          4.5380     1.0830    -2.1360 ha         1 6RG       0.130000
     34 HAI          4.5290     1.0440     2.1420 ha         1 6RG       0.130000
     35 HAJ          0.4900    -2.6190     0.0020 ha         1 6RG       0.151500
     36 HAK         -3.7800    -2.8060    -0.0240 ha         1 6RG       0.151500
     37 HAL         -3.1970     4.7120    -0.0590 ha         1 6RG       0.130000
     38 HAM         -1.0250     3.6660    -0.0160 ha         1 6RG       0.119000
     39 HAN         -5.0960     0.8510    -0.0570 ha         1 6RG       0.150000
     40 HAO          1.9850     0.1870    -0.8740 h1         1 6RG       0.060700
     41 HAOA         1.9810     0.1850     0.8800 h1         1 6RG       0.060700
     42 HAP          2.9630     2.4930    -0.8700 hc         1 6RG       0.049700
     43 HAPA         2.9630     2.4860     0.8890 hc         1 6RG       0.049700
     44 HNAS         0.6550     2.5310    -0.0110 hn         1 6RG       0.438800
     45 NAA         -5.5260     3.4810    -0.1430 nv         1 6RG      -0.842200
     46 HAB          7.7630    -0.7560    -0.0070 ha         1 6RG       0.132000
@<TRIPOS>BOND
     1     1     2 ar  
     2     1     6 ar  
     3     2     3 ar  
     4     2    25 1   
     5     3     4 ar  
     6     4     5 ar  
     7     4    19 ar  
     8     5     6 ar  
     9     5    18 ar  
    10     6    22 1   
    11     7     9 ar  
    12     7    10 ar  
    13     7    46 1   
    14     8    11 ar  
    15     8    12 ar  
    16     8    28 1   
    17     9    13 ar  
    18     9    29 1   
    19    10    14 ar  
    20    10    30 1   
    21    11    15 ar  
    22    11    31 1   
    23    12    16 ar  
    24    12    32 1   
    25    13    24 ar  
    26    13    33 1   
    27    14    24 ar  
    28    14    34 1   
    29    15    25 ar  
    30    15    35 1   
    31    16    25 ar  
    32    16    36 1   
    33    17    18 ar  
    34    17    23 ar  
    35    17    37 1   
    36    18    38 1   
    37    19    23 ar  
    38    19    39 1   
    39    20    21 1   
    40    20    22 1   
    41    20    40 1   
    42    20    41 1   
    43    21    24 1   
    44    21    42 1   
    45    21    43 1   
    46    22    44 1   
    47    23    45 1   
    48    26    45 1   
    49    27    45 1   
@<TRIPOS>SUBSTRUCTURE
     1 6RG         1 TEMP              0 ****  ****    0 ROOT
