@<TRIPOS>MOLECULE
6RI
   50    53     1     0     0
SMALL
No Charge or Current Charge


@<TRIPOS>ATOM
      1 C2          59.6890    52.3840    17.9800 c          1 6RI       0.628100
      2 C4          58.1170    50.3780    17.5820 ca         1 6RI      -0.038000
      3 C5          57.9710    49.2810    16.7090 ca         1 6RI      -0.123000
      4 C6          57.0130    48.2840    16.9660 ca         1 6RI      -0.124000
      5 C7          56.1880    48.3840    18.0950 ca         1 6RI       0.147000
      6 C11         60.6760    53.1460    17.0020 cy         1 6RI      -0.167700
      7 C12         59.6030    54.1780    16.5040 cy         1 6RI       0.159600
      8 C15         61.6240    52.3410    16.1110 ca         1 6RI      -0.066300
      9 C16         62.8410    51.8690    16.6360 ca         1 6RI      -0.099000
     10 C17         63.7140    51.1130    15.8360 ca         1 6RI      -0.089000
     11 C18         63.3870    50.7990    14.4960 cp         1 6RI      -0.044000
     12 C19         62.1640    51.2880    13.9780 ca         1 6RI      -0.089000
     13 C21         64.3280    50.0050    13.6500 cp         1 6RI      -0.042000
     14 C24         66.2280    48.6620    12.1050 ca         1 6RI       0.235300
     15 O28         61.7960    48.4980    11.8630 oh         1 6RI      -0.655000
     16 O1          59.4260    52.5200    19.1710 o          1 6RI      -0.571100
     17 N3          59.1010    51.3520    17.2530 ns         1 6RI      -0.139000
     18 F8          55.2660    47.4280    18.3420 f          1 6RI      -0.177000
     19 C9          56.3130    49.4760    18.9660 ca         1 6RI      -0.124000
     20 C10         57.2720    50.4740    18.7120 ca         1 6RI      -0.123000
     21 O13         60.5710    55.2220    16.9000 oq         1 6RI      -0.438000
     22 C14         61.1220    54.3260    17.9380 cy         1 6RI       0.159600
     23 C20         61.2900    52.0450    14.7760 ca         1 6RI      -0.099000
     24 C22         65.6750    50.4250    13.5180 ca         1 6RI       0.342900
     25 N23         66.6040    49.7840    12.7710 nb         1 6RI      -0.617000
     26 C25         64.9140    48.1580    12.1840 ca         1 6RI      -0.095000
     27 C26         63.9430    48.8200    12.9600 ca         1 6RI      -0.041300
     28 C29         67.2800    47.9250    11.2510 c3         1 6RI       0.266700
     29 F30         68.4920    48.5310    11.2470 f          1 6RI      -0.105000
     30 F31         67.4800    46.6610    11.6940 f          1 6RI      -0.105000
     31 F32         66.8910    47.8280     9.9580 f          1 6RI      -0.105000
     32 H1          58.6070    49.1960    15.8300 ha         1 6RI       0.132000
     33 H2          56.9080    47.4380    16.2910 ha         1 6RI       0.134500
     34 H3          58.6700    54.2760    17.0760 h1         1 6RI       0.063700
     35 H4          59.4070    54.1900    15.4260 h1         1 6RI       0.063700
     36 H5          63.1120    52.0840    17.6670 ha         1 6RI       0.119500
     37 H6          64.6490    50.7550    16.2620 ha         1 6RI       0.129500
     38 H7          61.8950    51.0820    12.9440 ha         1 6RI       0.129500
     39 H8          62.0230    48.5900    13.9390 h1         1 6RI       0.037700
     40 H9          62.6430    47.1250    13.1820 h1         1 6RI       0.037700
     41 H10         60.9230    48.0580    11.9650 ho         1 6RI       0.448000
     42 H11         59.4400    51.2810    16.3020 hn         1 6RI       0.152000
     43 H12         55.6630    49.5510    19.8350 ha         1 6RI       0.134500
     44 H13         57.3310    51.3170    19.3940 ha         1 6RI       0.132000
     45 H14         62.2050    54.4530    18.0500 h1         1 6RI       0.063700
     46 H15         60.6120    54.4940    18.8930 h1         1 6RI       0.063700
     47 H16         60.3550    52.3980    14.3470 ha         1 6RI       0.119500
     48 H17         66.0170    51.3240    14.0300 h4         1 6RI       0.033100
     49 H18         64.6530    47.2520    11.6440 ha         1 6RI       0.142000
     50 C27         62.5450    48.2110    13.0510 c3         1 6RI       0.199900
@<TRIPOS>BOND
     1     1     6 1   
     2     1    16 2   
     3     1    17 1   
     4     2     3 ar  
     5     2    17 1   
     6     2    20 ar  
     7     3     4 ar  
     8     3    32 1   
     9     4     5 ar  
    10     4    33 1   
    11     5    18 1   
    12     5    19 ar  
    13     6     7 1   
    14     6     8 1   
    15     6    22 1   
    16     7    21 1   
    17     7    34 1   
    18     7    35 1   
    19     8     9 ar  
    20     8    23 ar  
    21     9    10 ar  
    22     9    36 1   
    23    10    11 ar  
    24    10    37 1   
    25    11    12 ar  
    26    11    13 1   
    27    12    23 ar  
    28    12    38 1   
    29    13    24 ar  
    30    13    27 ar  
    31    14    25 ar  
    32    14    26 ar  
    33    14    28 1   
    34    15    41 1   
    35    15    50 1   
    36    17    42 1   
    37    19    20 ar  
    38    19    43 1   
    39    20    44 1   
    40    21    22 1   
    41    22    45 1   
    42    22    46 1   
    43    23    47 1   
    44    24    25 ar  
    45    24    48 1   
    46    26    27 ar  
    47    26    49 1   
    48    27    50 1   
    49    28    29 1   
    50    28    30 1   
    51    28    31 1   
    52    39    50 1   
    53    40    50 1   
@<TRIPOS>SUBSTRUCTURE
     1 6RI         1 TEMP              0 ****  ****    0 ROOT
