@<TRIPOS>MOLECULE
6RI
   50    53     1     0     0
SMALL
abcg2


@<TRIPOS>ATOM
      1 C2          59.7870    51.9860    17.6800 c          1 6RI       0.628100
      2 C4          57.8040    50.4880    17.5940 ca         1 6RI      -0.038000
      3 C5          56.6570    50.2280    16.8410 ca         1 6RI      -0.123000
      4 C6          55.7260    49.2900    17.2530 ca         1 6RI      -0.124000
      5 C7          55.9480    48.6070    18.4330 ca         1 6RI       0.147000
      6 C11         60.5410    52.9940    16.8210 cy         1 6RI      -0.167700
      7 C12         59.7320    54.0850    16.0850 cy         1 6RI       0.159600
      8 C15         61.5450    52.2210    15.9990 ca         1 6RI      -0.066300
      9 C16         62.7640    51.8400    16.5550 ca         1 6RI      -0.099000
     10 C17         63.6820    51.1100    15.8170 ca         1 6RI      -0.089000
     11 C18         63.4020    50.7280    14.5060 cp         1 6RI      -0.044000
     12 C19         62.1770    51.0990    13.9550 ca         1 6RI      -0.089000
     13 C21         64.4030    49.9820    13.7170 cp         1 6RI      -0.042000
     14 C24         66.4000    48.7940    12.2990 ca         1 6RI       0.235300
     15 O28         62.0860    48.5000    11.9020 oh         1 6RI      -0.655000
     16 O1          60.2030    51.6750    18.7790 o          1 6RI      -0.571100
     17 N3          58.6860    51.4570    17.0950 ns         1 6RI      -0.139000
     18 F8          55.0470    47.7010    18.8500 f          1 6RI      -0.177000
     19 C9          57.0750    48.8370    19.1930 ca         1 6RI      -0.124000
     20 C10         58.0080    49.7770    18.7760 ca         1 6RI      -0.123000
     21 O13         60.3820    55.1200    16.8150 oq         1 6RI      -0.438000
     22 C14         61.1020    54.1860    17.6190 cy         1 6RI       0.159600
     23 C20         61.2620    51.8310    14.6940 ca         1 6RI      -0.099000
     24 C22         65.7060    50.4810    13.6340 ca         1 6RI       0.342900
     25 N23         66.6810    49.9100    12.9490 nb         1 6RI      -0.617000
     26 C25         65.1510    48.1980    12.3160 ca         1 6RI      -0.095000
     27 C26         64.1260    48.7880    13.0440 ca         1 6RI      -0.041300
     28 C29         67.5160    48.1490    11.5180 c3         1 6RI       0.266700
     29 F30         68.6470    48.8420    11.5760 f          1 6RI      -0.105000
     30 F31         67.7730    46.9160    11.9770 f          1 6RI      -0.105000
     31 F32         67.1910    48.0150    10.2250 f          1 6RI      -0.105000
     32 H1          56.4820    50.7670    15.9160 ha         1 6RI       0.132000
     33 H2          54.8410    49.1010    16.6600 ha         1 6RI       0.134500
     34 H3          58.6530    54.0660    16.2630 h1         1 6RI       0.063700
     35 H4          59.9060    54.1590    15.0080 h1         1 6RI       0.063700
     36 H5          63.0070    52.1170    17.5730 ha         1 6RI       0.119500
     37 H6          64.6220    50.8250    16.2740 ha         1 6RI       0.129500
     38 H7          61.9380    50.8210    12.9370 ha         1 6RI       0.129500
     39 H8          62.2420    48.3890    13.9800 h1         1 6RI       0.037700
     40 H9          62.9380    47.0310    13.1000 h1         1 6RI       0.037700
     41 H10         61.2270    48.0660    11.9140 ho         1 6RI       0.448000
     42 H11         58.4380    51.8210    16.1870 hn         1 6RI       0.152000
     43 H12         57.2360    48.2890    20.1130 ha         1 6RI       0.134500
     44 H13         58.8820    49.9410    19.3830 ha         1 6RI       0.132000
     45 H14         62.1830    54.3270    17.5560 h1         1 6RI       0.063700
     46 H15         60.8010    54.2170    18.6690 h1         1 6RI       0.063700
     47 H16         60.3210    52.1030    14.2300 ha         1 6RI       0.119500
     48 H17         65.9570    51.4040    14.1450 h4         1 6RI       0.033100
     49 H18         64.9680    47.2700    11.7870 ha         1 6RI       0.142000
     50 C27         62.7820    48.1150    13.0690 c3         1 6RI       0.199900
@<TRIPOS>BOND
     1     1     6 1   
     2     1    16 2   
     3     1    17 1   
     4     2     3 ar  
     5     2    17 1   
     6     2    20 ar  
     7     3     4 ar  
     8     3    32 1   
     9     4     5 ar  
    10     4    33 1   
    11     5    18 1   
    12     5    19 ar  
    13     6     7 1   
    14     6     8 1   
    15     6    22 1   
    16     7    21 1   
    17     7    34 1   
    18     7    35 1   
    19     8     9 ar  
    20     8    23 ar  
    21     9    10 ar  
    22     9    36 1   
    23    10    11 ar  
    24    10    37 1   
    25    11    12 ar  
    26    11    13 1   
    27    12    23 ar  
    28    12    38 1   
    29    13    24 ar  
    30    13    27 ar  
    31    14    25 ar  
    32    14    26 ar  
    33    14    28 1   
    34    15    41 1   
    35    15    50 1   
    36    17    42 1   
    37    19    20 ar  
    38    19    43 1   
    39    20    44 1   
    40    21    22 1   
    41    22    45 1   
    42    22    46 1   
    43    23    47 1   
    44    24    25 ar  
    45    24    48 1   
    46    26    27 ar  
    47    26    49 1   
    48    27    50 1   
    49    28    29 1   
    50    28    30 1   
    51    28    31 1   
    52    39    50 1   
    53    40    50 1   
@<TRIPOS>SUBSTRUCTURE
     1 6RI         1 TEMP              0 ****  ****    0 ROOT
