@<TRIPOS>MOLECULE
6RJ
   42    45     1     0     0
SMALL
No Charge or Current Charge


@<TRIPOS>ATOM
      1 C4           0.6960     1.3430    -1.5270 ca         1 6RJ      -0.073000
      2 C6           2.4390     1.5050     0.1720 ca         1 6RJ      -0.361500
      3 C13          3.5760    -2.8200     0.7210 cc         1 6RJ       0.297900
      4 C20         -1.5810    -1.6790    -0.1910 ca         1 6RJ      -0.105000
      5 C21         -2.2660    -2.7690     0.3650 ca         1 6RJ      -0.099000
      6 C16          0.2860     1.4730    -2.8960 cg         1 6RJ       0.330000
      7 C19         -2.2190    -0.4280    -0.3280 ca         1 6RJ       0.079100
      8 C26         -5.6190     1.2400     0.3080 cc         1 6RJ      -0.145000
      9 C1           1.5220     1.0950     1.1590 ca         1 6RJ       0.042000
     10 C2           0.2000     0.7980     0.7970 ca         1 6RJ      -0.215000
     11 C3          -0.2130     0.9060    -0.5440 ca         1 6RJ       0.231100
     12 C5           2.0230     1.6410    -1.1690 ca         1 6RJ       0.065000
     13 S7           4.1390     1.8380     0.6280 sy         1 6RJ       1.179600
     14 O8           4.9020     2.2930    -0.5360 o          1 6RJ      -0.519500
     15 O9           4.1740     2.5320     1.9140 o          1 6RJ      -0.519500
     16 N10          4.7980     0.3660     1.0060 nu         1 6RJ      -0.842000
     17 C11          4.3010    -0.7680     0.5080 cd         1 6RJ       0.635300
     18 N12          4.0510    -1.7130     1.3800 nc         1 6RJ      -0.685000
     19 C14          3.4840    -2.7150    -0.6470 cd         1 6RJ      -0.287000
     20 S15          4.0370    -1.1410    -1.1940 ss         1 6RJ       0.036600
     21 N17         -0.0340     1.5820    -4.0130 n1         1 6RJ      -0.435000
     22 O18         -1.5140     0.6090    -0.8950 os         1 6RJ      -0.221200
     23 C22         -3.5940    -2.6120     0.7770 ca         1 6RJ       0.127000
     24 C23         -4.2400    -1.3750     0.6340 ca         1 6RJ      -0.103000
     25 C24         -3.5720    -0.2580     0.0770 ca         1 6RJ       0.041000
     26 C25         -4.3090     1.0310    -0.0490 cd         1 6RJ      -0.177000
     27 N27         -5.8550     2.5810     0.0170 na         1 6RJ       0.005800
     28 N28         -4.7550     3.2340    -0.5040 nc         1 6RJ      -0.511800
     29 C29         -3.8400     2.2840    -0.5330 cd         1 6RJ       0.268900
     30 Cl          -4.4600    -3.9760     1.4740 cl         1 6RJ      -0.187000
     31 H1           3.3090    -3.6890     1.3080 h4         1 6RJ       0.044100
     32 H3          -1.7710    -3.7310     0.4730 ha         1 6RJ       0.138000
     33 H4          -6.3810     0.5920     0.7240 h4         1 6RJ       0.160000
     34 H5           1.8290     0.9950     2.2000 ha         1 6RJ       0.136000
     35 H6          -0.5040     0.4830     1.5620 ha         1 6RJ       0.142000
     36 H7           2.7260     1.9670    -1.9370 ha         1 6RJ       0.156000
     37 H8           4.7790     0.3400     2.0110 hn         1 6RJ       0.517000
     38 H9           3.1400    -3.4620    -1.3500 h4         1 6RJ       0.165000
     39 H10         -5.2700    -1.2970     0.9640 ha         1 6RJ       0.135000
     40 H11         -6.7380     3.0720     0.1600 hn         1 6RJ       0.377000
     41 H12         -2.8600     2.5490    -0.9060 h4         1 6RJ       0.041100
     42 H2          -0.5520    -1.8090    -0.5210 ha         1 6RJ       0.136000
@<TRIPOS>BOND
     1     1     6 1   
     2     1    11 ar  
     3     1    12 ar  
     4     2     9 ar  
     5     2    12 ar  
     6     2    13 1   
     7     3    18 1   
     8     3    19 2   
     9     3    31 1   
    10     4     5 ar  
    11     4     7 ar  
    12     4    42 1   
    13     5    23 ar  
    14     5    32 1   
    15     6    21 3   
    16     7    22 1   
    17     7    25 ar  
    18     8    26 2   
    19     8    27 1   
    20     8    33 1   
    21     9    10 ar  
    22     9    34 1   
    23    10    11 ar  
    24    10    35 1   
    25    11    22 1   
    26    12    36 1   
    27    13    14 2   
    28    13    15 2   
    29    13    16 1   
    30    16    17 1   
    31    16    37 1   
    32    17    18 2   
    33    17    20 1   
    34    19    20 1   
    35    19    38 1   
    36    23    24 ar  
    37    23    30 1   
    38    24    25 ar  
    39    24    39 1   
    40    25    26 1   
    41    26    29 1   
    42    27    28 1   
    43    27    40 1   
    44    28    29 2   
    45    29    41 1   
@<TRIPOS>SUBSTRUCTURE
     1 6RJ         1 TEMP              0 ****  ****    0 ROOT
