@<TRIPOS>MOLECULE
6RJ
   42    45     1     0     0
SMALL
abcg2


@<TRIPOS>ATOM
      1 C4           0.3440     0.6220    -1.3280 ca         1 6RJ      -0.073000
      2 C6           1.8890     1.1710     0.4060 ca         1 6RJ      -0.361500
      3 C13          5.3070    -2.3580    -0.7030 cc         1 6RJ       0.297900
      4 C20         -2.4270    -2.2320     0.3740 ca         1 6RJ      -0.105000
      5 C21         -3.3650    -2.8800     1.1600 ca         1 6RJ      -0.099000
      6 C16         -0.0170     0.5880    -2.7050 cg         1 6RJ       0.330000
      7 C19         -2.6310    -0.9170    -0.0040 ca         1 6RJ       0.079100
      8 C26         -5.2490     1.6980    -0.3930 cc         1 6RJ      -0.145000
      9 C1           0.9960     0.6970     1.3630 ca         1 6RJ       0.042000
     10 C2          -0.2240     0.1780     0.9790 ca         1 6RJ      -0.215000
     11 C3          -0.5570     0.1350    -0.3720 ca         1 6RJ       0.231100
     12 C5           1.5720     1.1430    -0.9390 ca         1 6RJ       0.065000
     13 S7           3.4590     1.7860     0.9240 sy         1 6RJ       1.179600
     14 O8           4.0670     2.4700    -0.2010 o          1 6RJ      -0.519500
     15 O9           3.3170     2.4210     2.2150 o          1 6RJ      -0.519500
     16 N10          4.3980     0.4410     1.2020 nu         1 6RJ      -0.842000
     17 C11          4.7580    -0.4450     0.2000 cd         1 6RJ       0.635300
     18 N12          4.8740    -1.7110     0.4210 nc         1 6RJ      -0.685000
     19 C14          5.5080    -1.5780    -1.7900 cd         1 6RJ      -0.287000
     20 S15          5.1700     0.0650    -1.4030 ss         1 6RJ       0.036600
     21 N17         -0.2940     0.5630    -3.8220 n1         1 6RJ      -0.435000
     22 O18         -1.7200    -0.3190    -0.8500 os         1 6RJ      -0.221200
     23 C22         -4.5010    -2.1840     1.5460 ca         1 6RJ       0.127000
     24 C23         -4.7030    -0.8690     1.1690 ca         1 6RJ      -0.103000
     25 C24         -3.7650    -0.2010     0.3780 ca         1 6RJ       0.041000
     26 C25         -4.0180     1.1740    -0.0450 cd         1 6RJ      -0.177000
     27 N27         -5.0450     2.9860    -0.6870 na         1 6RJ       0.005800
     28 N28         -3.7790     3.3600    -0.5550 nc         1 6RJ      -0.511800
     29 C29         -3.1400     2.2740    -0.1710 cd         1 6RJ       0.268900
     30 CL          -5.6890    -2.9730     2.5260 cl         1 6RJ      -0.187000
     31 H1           5.4520    -3.4280    -0.6760 h4         1 6RJ       0.044100
     32 H3          -3.2100    -3.9060     1.4600 ha         1 6RJ       0.138000
     33 H4          -6.2230     1.2410    -0.4650 h4         1 6RJ       0.160000
     34 H5           1.2380     0.7330     2.4170 ha         1 6RJ       0.136000
     35 H6          -0.9110    -0.1780     1.7350 ha         1 6RJ       0.142000
     36 H7           2.2480     1.5270    -1.6900 ha         1 6RJ       0.156000
     37 H8           4.2670     0.0060     2.1110 hn         1 6RJ       0.517000
     38 H9           5.8160    -1.8680    -2.7810 h4         1 6RJ       0.165000
     39 H10         -5.5880    -0.3420     1.5000 ha         1 6RJ       0.135000
     40 H11         -5.7380     3.6540    -0.9880 hn         1 6RJ       0.377000
     41 H12         -2.0820     2.3260     0.0360 h4         1 6RJ       0.041100
     42 H2          -1.5410    -2.7610     0.0450 ha         1 6RJ       0.136000
@<TRIPOS>BOND
     1     1     6 1   
     2     1    11 ar  
     3     1    12 ar  
     4     2     9 ar  
     5     2    12 ar  
     6     2    13 1   
     7     3    18 1   
     8     3    19 2   
     9     3    31 1   
    10     4     5 ar  
    11     4     7 ar  
    12     4    42 1   
    13     5    23 ar  
    14     5    32 1   
    15     6    21 3   
    16     7    22 1   
    17     7    25 ar  
    18     8    26 2   
    19     8    27 1   
    20     8    33 1   
    21     9    10 ar  
    22     9    34 1   
    23    10    11 ar  
    24    10    35 1   
    25    11    22 1   
    26    12    36 1   
    27    13    14 2   
    28    13    15 2   
    29    13    16 1   
    30    16    17 1   
    31    16    37 1   
    32    17    18 2   
    33    17    20 1   
    34    19    20 1   
    35    19    38 1   
    36    23    24 ar  
    37    23    30 1   
    38    24    25 ar  
    39    24    39 1   
    40    25    26 1   
    41    26    29 1   
    42    27    28 1   
    43    27    40 1   
    44    28    29 2   
    45    29    41 1   
@<TRIPOS>SUBSTRUCTURE
     1 6RJ         1 TEMP              0 ****  ****    0 ROOT
