@<TRIPOS>MOLECULE
6RK
   22    22     1     0     0
SMALL
No Charge or Current Charge


@<TRIPOS>ATOM
      1 C1           2.2480     0.0080     0.0810 c          1 6RK       0.719000
      2 O1           2.6070     0.3030    -1.0500 o          1 6RK      -0.738500
      3 O2           3.0240    -0.2340     0.9940 o          1 6RK      -0.738500
      4 C7           0.7290    -0.0670     0.3790 c6         1 6RK      -0.189700
      5 C2           0.0250     1.3070     0.1900 c6         1 6RK      -0.051900
      6 C3          -1.4860     1.2210     0.5240 c6         1 6RK      -0.087900
      7 C4          -2.1830     0.1230    -0.3220 c6         1 6RK       0.148500
      8 C5          -1.4920    -1.2510    -0.1250 c6         1 6RK      -0.087900
      9 C6           0.0190    -1.1680    -0.4600 c6         1 6RK      -0.051900
     10 N4          -3.6140     0.0310     0.0280 n8         1 6RK      -0.996200
     11 H2           0.6280    -0.3450     1.4390 hc         1 6RK       0.023700
     12 H3           0.5020     2.0620     0.8310 hc         1 6RK       0.042200
     13 H4           0.1510     1.6550    -0.8450 hc         1 6RK       0.042200
     14 H5          -1.6120     1.0100     1.5950 hc         1 6RK       0.019450
     15 H6          -1.9570     2.1960     0.3390 hc         1 6RK       0.019450
     16 H7          -2.1190     0.4000    -1.3870 h1         1 6RK       0.052700
     17 H8          -1.6170    -1.5930     0.9130 hc         1 6RK       0.019450
     18 H9          -1.9660    -2.0080    -0.7640 hc         1 6RK       0.019450
     19 H10          0.1450    -0.9630    -1.5320 hc         1 6RK       0.042200
     20 H11          0.4920    -2.1420    -0.2730 hc         1 6RK       0.042200
     21 H12         -4.0180    -0.7700    -0.4700 hn         1 6RK       0.375000
     22 H13         -3.6850    -0.2380     1.0150 hn         1 6RK       0.375000
@<TRIPOS>BOND
     1     1     2 1   
     2     1     3 1   
     3     1     4 1   
     4     4     5 1   
     5     4     9 1   
     6     4    11 1   
     7     5     6 1   
     8     5    12 1   
     9     5    13 1   
    10     6     7 1   
    11     6    14 1   
    12     6    15 1   
    13     7     8 1   
    14     7    10 1   
    15     7    16 1   
    16     8     9 1   
    17     8    17 1   
    18     8    18 1   
    19     9    19 1   
    20     9    20 1   
    21    10    21 1   
    22    10    22 1   
@<TRIPOS>SUBSTRUCTURE
     1 6RK         1 TEMP              0 ****  ****    0 ROOT
