@<TRIPOS>MOLECULE
6RK
   22    22     1     0     0
SMALL
bcc


@<TRIPOS>ATOM
      1 C1           2.2370     0.0410     0.0730 c          1 6RK       0.929600
      2 O1           2.7290     1.1110    -0.3360 o          1 6RK      -0.843800
      3 O2           2.8630    -1.0230     0.2710 o          1 6RK      -0.843800
      4 C7           0.7240     0.0080     0.3770 c6         1 6RK      -0.189700
      5 C2          -0.0110     1.2960     0.0270 c6         1 6RK      -0.051900
      6 C3          -1.4970     1.2210     0.3660 c6         1 6RK      -0.087900
      7 C4          -2.1770     0.0360    -0.3100 c6         1 6RK       0.148500
      8 C5          -1.4390    -1.2570     0.0360 c6         1 6RK      -0.087900
      9 C6           0.0460    -1.1850    -0.3010 c6         1 6RK      -0.051900
     10 N4          -3.5990     0.0230     0.0170 n8         1 6RK      -0.885800
     11 H2           0.6270    -0.1470     1.4630 hc         1 6RK       0.023700
     12 H3           0.4420     2.1440     0.5440 hc         1 6RK       0.042200
     13 H4           0.1020     1.4980    -1.0440 hc         1 6RK       0.042200
     14 H5          -1.6210     1.1270     1.4520 hc         1 6RK       0.019450
     15 H6          -2.0000     2.1470     0.0740 hc         1 6RK       0.019450
     16 H7          -2.1000     0.1850    -1.3950 h1         1 6RK       0.052700
     17 H8          -1.5600    -1.4510     1.1100 hc         1 6RK       0.019450
     18 H9          -1.9070    -2.0980    -0.4860 hc         1 6RK       0.019450
     19 H10          0.1660    -1.0970    -1.3880 hc         1 6RK       0.042200
     20 H11          0.5420    -2.1120    -0.0110 hc         1 6RK       0.042200
     21 H12         -4.0390    -0.7640    -0.4480 hn         1 6RK       0.319800
     22 H13         -3.7050    -0.1640     1.0080 hn         1 6RK       0.319800
@<TRIPOS>BOND
     1     1     2 1   
     2     1     3 1   
     3     1     4 1   
     4     4     5 1   
     5     4     9 1   
     6     4    11 1   
     7     5     6 1   
     8     5    12 1   
     9     5    13 1   
    10     6     7 1   
    11     6    14 1   
    12     6    15 1   
    13     7     8 1   
    14     7    10 1   
    15     7    16 1   
    16     8     9 1   
    17     8    17 1   
    18     8    18 1   
    19     9    19 1   
    20     9    20 1   
    21    10    21 1   
    22    10    22 1   
@<TRIPOS>SUBSTRUCTURE
     1 6RK         1 TEMP              0 ****  ****    0 ROOT
