@<TRIPOS>MOLECULE
6RL
   46    48     1     0     0
SMALL
No Charge or Current Charge


@<TRIPOS>ATOM
      1 C5          -0.0560     2.2890     0.5660 cc         1 6RL      -0.444200
      2 C6           0.0550     1.1140    -0.1010 cd         1 6RL       0.338600
      3 C8           1.8090    -0.1010     1.2100 c6         1 6RL       0.215800
      4 C10          4.1080     0.8270     0.5470 c6         1 6RL      -0.111400
      5 C17         -0.5710    -1.9210    -0.5660 ca         1 6RL      -0.019300
      6 C21          0.1780    -4.0890     1.0920 ca         1 6RL      -0.158000
      7 C22         -0.9390    -3.3040     1.4230 ca         1 6RL      -0.046000
      8 C24         -2.4770    -1.4560     0.9880 cg         1 6RL       0.314000
      9 C26         -2.1820     1.3490    -0.9710 c          1 6RL       0.618000
     10 N2          -2.2900     2.5550    -0.2590 n          1 6RL      -0.361400
     11 C3          -1.2660     3.0850     0.5290 c          1 6RL       0.602200
     12 O4          -1.3580     4.1430     1.1340 o          1 6RL      -0.534000
     13 N7           1.2510     0.4120    -0.0710 nh         1 6RL      -0.701400
     14 C9           3.0430     0.7170     1.6660 c6         1 6RL      -0.101400
     15 C11          3.4750     1.4110    -0.7400 c6         1 6RL       0.124500
     16 N13          4.5080     1.5140    -1.8040 n8         1 6RL      -0.989200
     17 C14          2.2380     0.5600    -1.1780 c6         1 6RL       0.218800
     18 N15         -0.9940     0.6000    -0.8410 n          1 6RL      -0.333000
     19 C16         -0.9130    -0.7440    -1.4950 c3         1 6RL       0.142300
     20 C18          0.5410    -2.7290    -0.8890 ca         1 6RL      -0.153000
     21 C19          0.9120    -3.7990    -0.0640 ca         1 6RL       0.194000
     22 F20          1.9850    -4.5530    -0.3850 f          1 6RL      -0.170000
     23 C23         -1.3220    -2.2230     0.6030 ca         1 6RL      -0.023000
     24 N25         -3.4140    -0.8410     1.3170 n1         1 6RL      -0.432000
     25 O27         -3.1030     0.9630    -1.6810 o          1 6RL      -0.555000
     26 H1           0.7580     2.7000     1.1440 ha         1 6RL       0.219000
     27 H2           1.0420    -0.0770     1.9990 h1         1 6RL       0.059200
     28 H3           2.1030    -1.1530     1.0840 h1         1 6RL       0.059200
     29 H4           4.9370     1.4610     0.8880 hc         1 6RL       0.044200
     30 H5           4.5300    -0.1680     0.3440 hc         1 6RL       0.044200
     31 H6           0.4720    -4.9210     1.7270 ha         1 6RL       0.141000
     32 H7          -1.5080    -3.5390     2.3220 ha         1 6RL       0.133000
     33 H8          -4.4210     2.6320    -0.3350 h1         1 6RL       0.058367
     34 H9          -3.6800     4.0340     0.4510 h1         1 6RL       0.058367
     35 H10         -3.5830     3.8620    -1.3230 h1         1 6RL       0.058367
     36 H11          2.7270     1.7230     1.9730 hc         1 6RL       0.054700
     37 H12          3.4840     0.2490     2.5570 hc         1 6RL       0.054700
     38 H13          3.1190     2.4310    -0.5250 h1         1 6RL       0.070700
     39 H14          5.2750     2.1050    -1.4640 hn         1 6RL       0.397000
     40 H15          4.9530     0.5960    -1.9250 hn         1 6RL       0.397000
     41 H17          2.5780    -0.4340    -1.5010 h1         1 6RL       0.062700
     42 H18          1.7640     1.0380    -2.0480 h1         1 6RL       0.062700
     43 H19         -0.1560    -0.6800    -2.2860 h1         1 6RL       0.083700
     44 H20         -1.8520    -0.9950    -2.0020 h1         1 6RL       0.083700
     45 H21          1.1300    -2.5220    -1.7780 ha         1 6RL       0.137000
     46 C1          -3.5640     3.3170    -0.3710 c3         1 6RL       0.085300
@<TRIPOS>BOND
     1     1     2 2   
     2     1    11 1   
     3     1    26 1   
     4     2    13 1   
     5     2    18 1   
     6     3    13 1   
     7     3    14 1   
     8     3    27 1   
     9     3    28 1   
    10     4    14 1   
    11     4    15 1   
    12     4    29 1   
    13     4    30 1   
    14     5    19 1   
    15     5    20 ar  
    16     5    23 ar  
    17     6     7 ar  
    18     6    21 ar  
    19     6    31 1   
    20     7    23 ar  
    21     7    32 1   
    22     8    23 1   
    23     8    24 3   
    24     9    10 1   
    25     9    18 1   
    26     9    25 2   
    27    10    11 1   
    28    10    46 1   
    29    11    12 2   
    30    13    17 1   
    31    14    36 1   
    32    14    37 1   
    33    15    16 1   
    34    15    17 1   
    35    15    38 1   
    36    16    39 1   
    37    16    40 1   
    38    17    41 1   
    39    17    42 1   
    40    18    19 1   
    41    19    43 1   
    42    19    44 1   
    43    20    21 ar  
    44    20    45 1   
    45    21    22 1   
    46    33    46 1   
    47    34    46 1   
    48    35    46 1   
@<TRIPOS>SUBSTRUCTURE
     1 6RL         1 TEMP              0 ****  ****    0 ROOT
