@<TRIPOS>MOLECULE
6RL
   46    48     1     0     0
SMALL
bcc


@<TRIPOS>ATOM
      1 C5          -0.2010     1.9560     1.0080 cc         1 6RL      -0.394200
      2 C6           0.1290     1.0070     0.0960 cd         1 6RL       0.338600
      3 C8           1.9540     0.0150     1.3760 c6         1 6RL       0.215800
      4 C10          4.0670     0.9970     0.4770 c6         1 6RL      -0.111400
      5 C17         -0.4500    -1.7740    -0.6390 ca         1 6RL      -0.019300
      6 C21          0.0030    -3.9820     1.0450 ca         1 6RL      -0.176000
      7 C22         -1.0010    -3.0790     1.3370 ca         1 6RL      -0.064000
      8 C24         -2.3130    -1.1110     0.8250 cg         1 6RL       0.224800
      9 C26         -1.9230     1.4230    -1.1150 c          1 6RL       0.827500
     10 N2          -2.2040     2.4100    -0.2080 n          1 6RL      -0.495400
     11 C3          -1.4360     2.6710     0.9310 c          1 6RL       0.744700
     12 O4          -1.7970     3.5070     1.7450 o          1 6RL      -0.609500
     13 N7           1.2840     0.2860     0.1140 nh         1 6RL      -0.701400
     14 C9           3.1040     0.9720     1.6580 c6         1 6RL      -0.101400
     15 C11          3.3350     1.3040    -0.8280 c6         1 6RL       0.124500
     16 N13          4.1690     1.2760    -2.0190 n8         1 6RL      -0.878800
     17 C14          2.1800     0.3220    -1.0360 c6         1 6RL       0.218800
     18 N15         -0.7770     0.6720    -0.8970 n          1 6RL      -0.400000
     19 C16         -0.6970    -0.6230    -1.5770 c3         1 6RL       0.142300
     20 C18          0.5440    -2.6920    -0.9360 ca         1 6RL      -0.171000
     21 C19          0.7550    -3.7690    -0.0960 ca         1 6RL       0.158900
     22 F20          1.7280    -4.6310    -0.4000 f          1 6RL      -0.134900
     23 C23         -1.2360    -1.9880     0.5010 ca         1 6RL      -0.023000
     24 N25         -3.1990    -0.4250     1.0980 n1         1 6RL      -0.342800
     25 O27         -2.6590     1.1950    -2.0540 o          1 6RL      -0.630500
     26 H1           0.5040     2.2540     1.7690 ha         1 6RL       0.169000
     27 H2           1.2160     0.0170     2.1760 h1         1 6RL       0.059200
     28 H3           2.3460    -1.0060     1.3110 h1         1 6RL       0.059200
     29 H4           4.8560     1.7360     0.6380 hc         1 6RL       0.044200
     30 H5           4.5600     0.0210     0.3840 hc         1 6RL       0.044200
     31 H6           0.1930    -4.8300     1.6880 ha         1 6RL       0.159000
     32 H7          -1.6130    -3.2240     2.2160 ha         1 6RL       0.151000
     33 H8          -4.3020     2.4990    -0.3450 h1         1 6RL       0.058367
     34 H9          -3.5090     3.9360     0.3120 h1         1 6RL       0.058367
     35 H10         -3.4320     3.6060    -1.4200 h1         1 6RL       0.058367
     36 H11          2.7210     1.9790     1.8490 hc         1 6RL       0.054700
     37 H12          3.6170     0.6540     2.5680 hc         1 6RL       0.054700
     38 H13          2.9030     2.3090    -0.7570 h1         1 6RL       0.070700
     39 H14          4.8610     2.0130    -1.9610 hn         1 6RL       0.341800
     40 H15          4.6950     0.4090    -2.0430 hn         1 6RL       0.341800
     41 H17          2.5810    -0.6860    -1.2030 h1         1 6RL       0.062700
     42 H18          1.6400     0.6150    -1.9350 h1         1 6RL       0.062700
     43 H19          0.0560    -0.6150    -2.3630 h1         1 6RL       0.083700
     44 H20         -1.6500    -0.7710    -2.0820 h1         1 6RL       0.083700
     45 H21          1.1630    -2.5660    -1.8160 ha         1 6RL       0.155000
     46 C1          -3.4360     3.1520    -0.4320 c3         1 6RL       0.085300
@<TRIPOS>BOND
     1     1     2 2   
     2     1    11 1   
     3     1    26 1   
     4     2    13 1   
     5     2    18 1   
     6     3    13 1   
     7     3    14 1   
     8     3    27 1   
     9     3    28 1   
    10     4    14 1   
    11     4    15 1   
    12     4    29 1   
    13     4    30 1   
    14     5    19 1   
    15     5    20 ar  
    16     5    23 ar  
    17     6     7 ar  
    18     6    21 ar  
    19     6    31 1   
    20     7    23 ar  
    21     7    32 1   
    22     8    23 1   
    23     8    24 3   
    24     9    10 1   
    25     9    18 1   
    26     9    25 2   
    27    10    11 1   
    28    10    46 1   
    29    11    12 2   
    30    13    17 1   
    31    14    36 1   
    32    14    37 1   
    33    15    16 1   
    34    15    17 1   
    35    15    38 1   
    36    16    39 1   
    37    16    40 1   
    38    17    41 1   
    39    17    42 1   
    40    18    19 1   
    41    19    43 1   
    42    19    44 1   
    43    20    21 ar  
    44    20    45 1   
    45    21    22 1   
    46    33    46 1   
    47    34    46 1   
    48    35    46 1   
@<TRIPOS>SUBSTRUCTURE
     1 6RL         1 TEMP              0 ****  ****    0 ROOT
