@<TRIPOS>MOLECULE
6RM
   42    45     1     0     0
SMALL
No Charge or Current Charge


@<TRIPOS>ATOM
      1 C4           0.2610     1.1240    -0.6990 cc         1 6RM      -0.378200
      2 C14         -4.2150     0.8680    -0.1160 cx         1 6RM      -0.072400
      3 C5           0.9210    -0.0760    -0.9200 cd         1 6RM       0.200400
      4 C6          -1.1470    -1.1110    -0.8510 cc         1 6RM      -0.018000
      5 C11          7.2330     0.4300     0.6120 ca         1 6RM       0.132000
      6 C7           2.4210    -0.1820    -1.0920 c3         1 6RM       0.211800
      7 C8           4.4450     0.3220     0.2340 ca         1 6RM       0.128100
      8 C9           4.9780     0.8040     1.4420 ca         1 6RM      -0.146000
      9 C10          6.3710     0.8590     1.6330 ca         1 6RM      -0.113500
     10 C12          6.7110    -0.0540    -0.5990 ca         1 6RM      -0.113500
     11 C13          5.3180    -0.1100    -0.7930 ca         1 6RM      -0.146000
     12 N1           0.1650    -1.2540    -1.0160 nd         1 6RM      -0.324600
     13 C3          -1.1820     1.2690    -0.5280 c          1 6RM       0.537000
     14 O1           3.0720     0.2920     0.1050 os         1 6RM      -0.324100
     15 O           -1.7100     2.3600    -0.3630 o          1 6RM      -0.517000
     16 S           -2.1580    -2.5280    -0.9960 ss         1 6RM       0.219000
     17 C1          -3.5830    -1.5110    -0.6880 cc         1 6RM      -0.223300
     18 C           -4.9590    -2.1290    -0.7150 c3         1 6RM      -0.017800
     19 N           -1.8480     0.0340    -0.5910 n          1 6RM      -0.013800
     20 C2          -3.2160    -0.1900    -0.4590 cd         1 6RM      -0.030300
     21 C16         -5.3010     0.6380     0.9200 cx         1 6RM      -0.117700
     22 C15         -4.1610     1.5750     1.2250 cx         1 6RM      -0.081400
     23 C17         -6.7140     1.1580     0.6940 c3         1 6RM       0.190600
     24 O2          -7.3780     1.3540     1.9450 oh         1 6RM      -0.654000
     25 H1           0.8160     2.0520    -0.6390 ha         1 6RM       0.217000
     26 H3          -4.4690     1.4910    -0.9720 hc         1 6RM       0.108700
     27 H4           2.6930    -1.2270    -1.2900 h1         1 6RM       0.052200
     28 H5           2.7190     0.4210    -1.9590 h1         1 6RM       0.052200
     29 H6           4.3090     1.1360     2.2310 ha         1 6RM       0.126500
     30 H7           6.7820     1.2320     2.5680 ha         1 6RM       0.131500
     31 H8           7.3870    -0.3840    -1.3850 ha         1 6RM       0.131500
     32 H9           4.9380    -0.4880    -1.7380 ha         1 6RM       0.126500
     33 H10         -4.9750    -3.0280    -1.3430 hc         1 6RM       0.054033
     34 H11         -5.2790    -2.4220     0.2910 hc         1 6RM       0.054033
     35 H12         -5.7020    -1.4330    -1.1230 hc         1 6RM       0.054033
     36 H13         -5.2920    -0.3060     1.4590 hc         1 6RM       0.091700
     37 H14         -3.4160     1.2440     1.9440 hc         1 6RM       0.084200
     38 H15         -4.3650     2.6420     1.2410 hc         1 6RM       0.084200
     39 H16         -6.6720     2.1020     0.1350 h1         1 6RM       0.020700
     40 H17         -7.2650     0.4320     0.0810 h1         1 6RM       0.020700
     41 H18         -8.2780     1.6890     1.7380 ho         1 6RM       0.444000
     42 F            8.5700     0.4820     0.7940 f          1 6RM      -0.181000
@<TRIPOS>BOND
     1     1     3 2   
     2     1    13 1   
     3     1    25 1   
     4     2    20 1   
     5     2    21 1   
     6     2    22 1   
     7     2    26 1   
     8     3     6 1   
     9     3    12 1   
    10     4    12 2   
    11     4    16 1   
    12     4    19 1   
    13     5     9 ar  
    14     5    10 ar  
    15     5    42 1   
    16     6    14 1   
    17     6    27 1   
    18     6    28 1   
    19     7     8 ar  
    20     7    11 ar  
    21     7    14 1   
    22     8     9 ar  
    23     8    29 1   
    24     9    30 1   
    25    10    11 ar  
    26    10    31 1   
    27    11    32 1   
    28    13    15 2   
    29    13    19 1   
    30    16    17 1   
    31    17    18 1   
    32    17    20 2   
    33    18    33 1   
    34    18    34 1   
    35    18    35 1   
    36    19    20 1   
    37    21    22 1   
    38    21    23 1   
    39    21    36 1   
    40    22    37 1   
    41    22    38 1   
    42    23    24 1   
    43    23    39 1   
    44    23    40 1   
    45    24    41 1   
@<TRIPOS>SUBSTRUCTURE
     1 6RM         1 TEMP              0 ****  ****    0 ROOT
