@<TRIPOS>MOLECULE
6RM
   42    45     1     0     0
SMALL
bcc


@<TRIPOS>ATOM
      1 C4           0.0670     1.5600    -1.1530 cc         1 6RM      -0.328200
      2 C14         -4.2290     0.7760    -0.3150 cx         1 6RM      -0.072400
      3 C5           0.8800     0.5000    -0.8910 cd         1 6RM       0.200400
      4 C6          -0.8700    -0.8080    -0.3950 cc         1 6RM       0.177600
      5 C11          7.0300    -0.1360     0.5740 ca         1 6RM       0.096900
      6 C7           2.3670     0.6070    -1.0470 c3         1 6RM       0.188600
      7 C8           4.2970     0.1030     0.2360 ca         1 6RM       0.128100
      8 C9           4.8210    -0.3690     1.4410 ca         1 6RM      -0.164000
      9 C10          6.1880    -0.4900     1.6130 ca         1 6RM      -0.131500
     10 C12          6.5380     0.3330    -0.6240 ca         1 6RM      -0.131500
     11 C13          5.1620     0.4550    -0.7950 ca         1 6RM      -0.164000
     12 N1           0.4140    -0.7150    -0.5300 nd         1 6RM      -0.324600
     13 C3          -1.3590     1.4500    -1.0730 c          1 6RM       0.612500
     14 O1           2.9510     0.1870     0.1670 os         1 6RM      -0.300900
     15 O           -2.1600     2.3070    -1.3900 o          1 6RM      -0.592500
     16 S           -1.6560    -2.2810     0.0270 ss         1 6RM      -0.070800
     17 C1          -3.2140    -1.5030    -0.0190 cc         1 6RM      -0.078400
     18 C           -4.4290    -2.3120     0.2750 c3         1 6RM      -0.017800
     19 N           -1.7820     0.1910    -0.5770 n          1 6RM      -0.115200
     20 C2          -3.1160    -0.1950    -0.3180 cd         1 6RM       0.020400
     21 C16         -5.2730     0.7060     0.7660 cx         1 6RM      -0.117700
     22 C15         -4.2980     1.8350     0.7450 cx         1 6RM      -0.081400
     23 C17         -6.7050     0.9280     0.3850 c3         1 6RM       0.167400
     24 O2          -7.3930     1.4500     1.5000 oh         1 6RM      -0.591800
     25 H1           0.4720     2.5130    -1.4640 ha         1 6RM       0.167000
     26 H3          -4.5800     1.0800    -1.2950 hc         1 6RM       0.108700
     27 H4           2.6820    -0.0370    -1.8770 h1         1 6RM       0.052200
     28 H5           2.6510     1.6350    -1.2940 h1         1 6RM       0.052200
     29 H6           4.1500    -0.6440     2.2440 ha         1 6RM       0.144500
     30 H7           6.5920    -0.8580     2.5470 ha         1 6RM       0.149500
     31 H8           7.2100     0.6070    -1.4270 ha         1 6RM       0.149500
     32 H9           4.7970     0.8300    -1.7410 ha         1 6RM       0.144500
     33 H10         -4.3480    -3.3030    -0.1710 hc         1 6RM       0.054033
     34 H11         -4.5720    -2.4460     1.3480 hc         1 6RM       0.054033
     35 H12         -5.3180    -1.8390    -0.1330 hc         1 6RM       0.054033
     36 H13         -5.1190    -0.0350     1.5440 hc         1 6RM       0.091700
     37 H14         -3.5260     1.8510     1.5040 hc         1 6RM       0.084200
     38 H15         -4.6400     2.8140     0.4330 hc         1 6RM       0.084200
     39 H16         -6.7470     1.6130    -0.4730 h1         1 6RM       0.020700
     40 H17         -7.1430    -0.0220     0.0520 h1         1 6RM       0.020700
     41 H18         -8.3280     1.4950     1.2800 ho         1 6RM       0.405000
     42 F            8.3610    -0.2550     0.7390 f          1 6RM      -0.145900
@<TRIPOS>BOND
     1     1     3 2   
     2     1    13 1   
     3     1    25 1   
     4     2    20 1   
     5     2    21 1   
     6     2    22 1   
     7     2    26 1   
     8     3     6 1   
     9     3    12 1   
    10     4    12 2   
    11     4    16 1   
    12     4    19 1   
    13     5     9 ar  
    14     5    10 ar  
    15     5    42 1   
    16     6    14 1   
    17     6    27 1   
    18     6    28 1   
    19     7     8 ar  
    20     7    11 ar  
    21     7    14 1   
    22     8     9 ar  
    23     8    29 1   
    24     9    30 1   
    25    10    11 ar  
    26    10    31 1   
    27    11    32 1   
    28    13    15 2   
    29    13    19 1   
    30    16    17 1   
    31    17    18 1   
    32    17    20 2   
    33    18    33 1   
    34    18    34 1   
    35    18    35 1   
    36    19    20 1   
    37    21    22 1   
    38    21    23 1   
    39    21    36 1   
    40    22    37 1   
    41    22    38 1   
    42    23    24 1   
    43    23    39 1   
    44    23    40 1   
    45    24    41 1   
@<TRIPOS>SUBSTRUCTURE
     1 6RM         1 TEMP              0 ****  ****    0 ROOT
