@<TRIPOS>MOLECULE
6RN
   30    31     1     0     0
SMALL
bcc


@<TRIPOS>ATOM
      1 C4           0.9200     0.3500    -0.0410 ca         1 6RN       0.140600
      2 C5          -1.2780    -0.6760    -0.3500 c3         1 6RN       0.159500
      3 C6          -2.7390    -0.3130    -0.2600 ca         1 6RN       0.409600
      4 N1          -3.0510     0.8450     0.3050 nb         1 6RN      -0.686000
      5 C7          -3.7080    -1.1980    -0.7240 ca         1 6RN      -0.242300
      6 C8          -5.0420    -0.8580    -0.5880 ca         1 6RN      -0.084000
      7 C9          -5.3680     0.3560     0.0020 ca         1 6RN      -0.249300
      8 C10         -4.3340     1.1710     0.4300 ca         1 6RN       0.414200
      9 C11          1.6740     1.4340     0.4340 ca         1 6RN      -0.166500
     10 C12          3.0440     1.3510     0.5700 ca         1 6RN      -0.144500
     11 C1           3.7270     0.1800     0.2350 ca         1 6RN       0.088100
     12 C3           1.6100    -0.8180    -0.3660 ca         1 6RN      -0.166500
     13 C2           2.9950    -0.9020    -0.2340 ca         1 6RN      -0.144500
     14 N           -0.4450     0.4820    -0.2000 nu         1 6RN      -0.746600
     15 H1          -1.0710    -1.4430     0.4140 h1         1 6RN       0.045200
     16 H2          -1.0950    -1.1620    -1.3140 h1         1 6RN       0.045200
     17 H3          -3.4150    -2.1340    -1.1840 ha         1 6RN       0.143000
     18 H4          -5.8170    -1.5270    -0.9400 ha         1 6RN       0.139000
     19 H5          -6.3960     0.6660     0.1270 ha         1 6RN       0.144000
     20 H6          -4.5450     2.1270     0.8940 h4         1 6RN       0.020100
     21 H7           1.1710     2.3560     0.7040 ha         1 6RN       0.129500
     22 H8           3.5970     2.2050     0.9430 ha         1 6RN       0.135000
     23 H10          1.0810    -1.6860    -0.7370 ha         1 6RN       0.129500
     24 H11          3.4750    -1.8320    -0.5070 ha         1 6RN       0.135000
     25 H12         -0.8780     1.2140     0.3450 hn         1 6RN       0.436800
     26 C13          5.7900    -0.9810     0.0980 c3         1 6RN       0.127700
     27 H9           5.4730    -1.8270     0.7150 h1         1 6RN       0.036367
     28 H13          5.6930    -1.2620    -0.9550 h1         1 6RN       0.036367
     29 H14          6.8370    -0.7720     0.3070 h1         1 6RN       0.036367
     30 O            5.0720     0.1950     0.4020 os         1 6RN      -0.320900
@<TRIPOS>BOND
     1     1     9 ar  
     2     1    12 ar  
     3     1    14 1   
     4     2     3 1   
     5     2    14 1   
     6     2    15 1   
     7     2    16 1   
     8     3     4 ar  
     9     3     5 ar  
    10     4     8 ar  
    11     5     6 ar  
    12     5    17 1   
    13     6     7 ar  
    14     6    18 1   
    15     7     8 ar  
    16     7    19 1   
    17     8    20 1   
    18     9    10 ar  
    19     9    21 1   
    20    10    11 ar  
    21    10    22 1   
    22    11    13 ar  
    23    11    30 1   
    24    12    13 ar  
    25    12    23 1   
    26    13    24 1   
    27    14    25 1   
    28    26    27 1   
    29    26    28 1   
    30    26    29 1   
    31    26    30 1   
@<TRIPOS>SUBSTRUCTURE
     1 6RN         1 TEMP              0 ****  ****    0 ROOT
