@<TRIPOS>MOLECULE
6RN
   30    31     1     0     0
SMALL
No Charge or Current Charge


@<TRIPOS>ATOM
      1 C4           0.9840     0.2850     0.0410 ca         1 6RN       0.279000
      2 C5          -1.3680    -0.7680    -0.2060 c3         1 6RN       0.159500
      3 C6          -2.8570    -0.3460    -0.1790 ca         1 6RN       0.344300
      4 N1          -3.1730     0.8470     0.3980 nb         1 6RN      -0.686000
      5 C7          -3.8370    -1.1910    -0.7370 ca         1 6RN      -0.159000
      6 C8          -5.1860    -0.8030    -0.7060 ca         1 6RN      -0.066000
      7 C9          -5.5050     0.4280    -0.1110 ca         1 6RN      -0.166000
      8 C10         -4.4750     1.2170     0.4260 ca         1 6RN       0.348900
      9 C11          1.7000     1.4050     0.4960 ca         1 6RN      -0.148500
     10 C12          3.1030     1.3620     0.5930 ca         1 6RN      -0.126500
     11 C1           3.8040     0.1980     0.2360 ca         1 6RN       0.088100
     12 C3           1.6850    -0.8820    -0.3190 ca         1 6RN      -0.148500
     13 C2           3.0890    -0.9300    -0.2240 ca         1 6RN      -0.126500
     14 N           -0.4070     0.3570    -0.0460 nu         1 6RN      -0.940200
     15 H1          -1.2100    -1.5000     0.5980 h1         1 6RN       0.045200
     16 H2          -1.1730    -1.2830    -1.1570 h1         1 6RN       0.045200
     17 H3          -3.5490    -2.1380    -1.1870 ha         1 6RN       0.125000
     18 H4          -5.9620    -1.4380    -1.1300 ha         1 6RN       0.121000
     19 H5          -6.5340     0.7720    -0.0630 ha         1 6RN       0.126000
     20 H6          -4.6970     2.1760     0.8930 h4         1 6RN       0.020100
     21 H7           1.1710     2.3120     0.7750 ha         1 6RN       0.111500
     22 H8           3.6490     2.2330     0.9470 ha         1 6RN       0.117000
     23 H10          1.1490    -1.7560    -0.6770 ha         1 6RN       0.111500
     24 H11          3.6000    -1.8460    -0.5090 ha         1 6RN       0.117000
     25 H12         -0.8340     1.2410     0.2460 hn         1 6RN       0.492000
     26 C13          5.9900    -0.9280     0.0120 c3         1 6RN       0.150900
     27 H9           5.7260    -1.7940     0.6320 h1         1 6RN       0.036367
     28 H13          5.8610    -1.1970    -1.0450 h1         1 6RN       0.036367
     29 H14          7.0510    -0.7030     0.1770 h1         1 6RN       0.036367
     30 O            5.1800     0.2120     0.3520 os         1 6RN      -0.344100
@<TRIPOS>BOND
     1     1     9 ar  
     2     1    12 ar  
     3     1    14 1   
     4     2     3 1   
     5     2    14 1   
     6     2    15 1   
     7     2    16 1   
     8     3     4 ar  
     9     3     5 ar  
    10     4     8 ar  
    11     5     6 ar  
    12     5    17 1   
    13     6     7 ar  
    14     6    18 1   
    15     7     8 ar  
    16     7    19 1   
    17     8    20 1   
    18     9    10 ar  
    19     9    21 1   
    20    10    11 ar  
    21    10    22 1   
    22    11    13 ar  
    23    11    30 1   
    24    12    13 ar  
    25    12    23 1   
    26    13    24 1   
    27    14    25 1   
    28    26    27 1   
    29    26    28 1   
    30    26    29 1   
    31    26    30 1   
@<TRIPOS>SUBSTRUCTURE
     1 6RN         1 TEMP              0 ****  ****    0 ROOT
