@<TRIPOS>MOLECULE
6RO
   20    20     1     0     0
SMALL
No Charge or Current Charge


@<TRIPOS>ATOM
      1 C4          -2.6790    -0.0860    -0.1640 ca         1 6RO       0.118000
      2 C5          -1.7840     0.8420     0.3900 ca         1 6RO      -0.090500
      3 C6          -0.4020     0.7180     0.1520 ca         1 6RO      -0.104000
      4 Cl          -4.4050     0.0710     0.1330 cl         1 6RO      -0.191000
      5 C3          -2.1950    -1.1370    -0.9580 ca         1 6RO      -0.090500
      6 C2          -0.8130    -1.2600    -1.1950 ca         1 6RO      -0.104000
      7 C1           0.0960    -0.3400    -0.6390 ca         1 6RO       0.236000
      8 N            1.4560    -0.5100    -0.9080 nu         1 6RO      -0.874100
      9 S            2.7890     0.0530    -0.0900 s6         1 6RO       1.189100
     10 O            3.9230    -0.6490    -0.6920 o          1 6RO      -0.523000
     11 O1           2.7160     1.5150    -0.1210 o          1 6RO      -0.523000
     12 C            2.5790    -0.5220     1.5820 c3         1 6RO      -0.383100
     13 H1          -2.1600     1.6590     1.0010 ha         1 6RO       0.136500
     14 H2           0.2670     1.4540     0.5840 ha         1 6RO       0.133000
     15 H3          -2.8890    -1.8540    -1.3900 ha         1 6RO       0.136500
     16 H4          -0.4500    -2.0770    -1.8130 ha         1 6RO       0.133000
     17 H5           1.7540    -1.3500    -1.3860 hn         1 6RO       0.490000
     18 H6           2.5080    -1.6130     1.5500 h1         1 6RO       0.103700
     19 H7           3.4550    -0.1970     2.1510 h1         1 6RO       0.103700
     20 H8           1.6620    -0.0750     1.9780 h1         1 6RO       0.103700
@<TRIPOS>BOND
     1     1     2 ar  
     2     1     4 1   
     3     1     5 ar  
     4     2     3 ar  
     5     2    13 1   
     6     3     7 ar  
     7     3    14 1   
     8     5     6 ar  
     9     5    15 1   
    10     6     7 ar  
    11     6    16 1   
    12     7     8 1   
    13     8     9 1   
    14     8    17 1   
    15     9    10 2   
    16     9    11 2   
    17     9    12 1   
    18    12    18 1   
    19    12    19 1   
    20    12    20 1   
@<TRIPOS>SUBSTRUCTURE
     1 6RO         1 TEMP              0 ****  ****    0 ROOT
