@<TRIPOS>MOLECULE
6RO
   20    20     1     0     0
SMALL
abcg2


@<TRIPOS>ATOM
      1 C4          -2.5720     0.0010    -0.0850 ca         1 6RO       0.118000
      2 C5          -1.8410     1.1790    -0.0970 ca         1 6RO      -0.090500
      3 C6          -0.4910     1.1400    -0.4070 ca         1 6RO      -0.104000
      4 CL          -4.2630     0.0520     0.2850 cl         1 6RO      -0.191000
      5 C3          -1.9740    -1.2150    -0.3730 ca         1 6RO      -0.090500
      6 C2          -0.6190    -1.2480    -0.6620 ca         1 6RO      -0.104000
      7 C1           0.1270    -0.0750    -0.6840 ca         1 6RO       0.236000
      8 N            1.5030    -0.1090    -1.0210 nu         1 6RO      -0.874100
      9 S            2.6520     0.1390     0.1590 s6         1 6RO       1.189100
     10 O            3.9330     0.0220    -0.5170 o          1 6RO      -0.523000
     11 O1           2.3090     1.3700     0.8490 o          1 6RO      -0.523000
     12 C            2.4800    -1.2050     1.3080 c3         1 6RO      -0.383100
     13 H1          -2.3190     2.1250     0.1180 ha         1 6RO       0.136500
     14 H2           0.0720     2.0610    -0.4530 ha         1 6RO       0.133000
     15 H3          -2.5480    -2.1310    -0.3620 ha         1 6RO       0.136500
     16 H4          -0.1440    -2.1980    -0.8780 ha         1 6RO       0.133000
     17 H5           1.7660    -0.8670    -1.6430 hn         1 6RO       0.490000
     18 H6           2.6760    -2.1440     0.7960 h1         1 6RO       0.103700
     19 H7           3.2080    -1.0550     2.1040 h1         1 6RO       0.103700
     20 H8           1.4750    -1.2010     1.7250 h1         1 6RO       0.103700
@<TRIPOS>BOND
     1     1     2 ar  
     2     1     4 1   
     3     1     5 ar  
     4     2     3 ar  
     5     2    13 1   
     6     3     7 ar  
     7     3    14 1   
     8     5     6 ar  
     9     5    15 1   
    10     6     7 ar  
    11     6    16 1   
    12     7     8 1   
    13     8     9 1   
    14     8    17 1   
    15     9    10 2   
    16     9    11 2   
    17     9    12 1   
    18    12    18 1   
    19    12    19 1   
    20    12    20 1   
@<TRIPOS>SUBSTRUCTURE
     1 6RO         1 TEMP              0 ****  ****    0 ROOT
