@<TRIPOS>MOLECULE
6RP
   21    22     1     0     0
SMALL
No Charge or Current Charge


@<TRIPOS>ATOM
      1 CAD          1.7620    -0.0540     1.1850 cc         1 6RP      -0.125500
      2 CAI          2.9010     0.6950     1.2400 cd         1 6RP      -0.276000
      3 CAK          3.0210     1.3780     0.0170 cd         1 6RP       0.216900
      4 NAL          2.0300     1.1080    -0.8080 nc         1 6RP      -0.528300
      5 NAE          1.2510     0.2210    -0.0840 na         1 6RP       0.163800
      6 CA           0.0130    -0.3150    -0.6790 c3         1 6RP       0.050300
      7 C           -0.0720    -1.8430    -0.5560 c          1 6RP       0.722000
      8 O            0.1410    -2.5070    -1.5630 o          1 6RP      -0.680000
      9 OXT         -0.3420    -2.3440     0.5290 o          1 6RP      -0.680000
     10 N           -1.2100     0.3490    -0.1940 na         1 6RP       0.163800
     11 NAM         -2.1000     0.8980    -1.1030 nc         1 6RP      -0.528300
     12 CAN         -3.0400     1.4050    -0.3310 cd         1 6RP       0.216900
     13 CAJ         -2.7800     1.1990     1.0360 cd         1 6RP      -0.276000
     14 CAH         -1.6010     0.5190     1.1350 cc         1 6RP      -0.125500
     15 H1           1.2940    -0.7230     1.8970 h4         1 6RP       0.157000
     16 H2           3.5910     0.7540     2.0750 ha         1 6RP       0.122000
     17 H3           3.8010     2.0620    -0.2940 h4         1 6RP       0.012100
     18 H4           0.0730    -0.0930    -1.7460 h2         1 6RP       0.103700
     19 H6          -3.8860     1.9080    -0.7820 h4         1 6RP       0.012100
     20 H7          -3.4060     1.5230     1.8610 ha         1 6RP       0.122000
     21 H8          -1.0350     0.1560     1.9840 h4         1 6RP       0.157000
@<TRIPOS>BOND
     1     1     2 2   
     2     1     5 1   
     3     1    15 1   
     4     2     3 1   
     5     2    16 1   
     6     3     4 2   
     7     3    17 1   
     8     4     5 1   
     9     5     6 1   
    10     6     7 1   
    11     6    10 1   
    12     6    18 1   
    13     7     8 1   
    14     7     9 1   
    15    10    11 1   
    16    10    14 1   
    17    11    12 2   
    18    12    13 1   
    19    12    19 1   
    20    13    14 2   
    21    13    20 1   
    22    14    21 1   
@<TRIPOS>SUBSTRUCTURE
     1 6RP         1 TEMP              0 ****  ****    0 ROOT
