@<TRIPOS>MOLECULE
6RP
   21    22     1     0     0
SMALL
abcg2


@<TRIPOS>ATOM
      1 CAD          1.7750     0.0200     1.0360 cc         1 6RP      -0.125500
      2 CAI          2.8410     0.8830     1.0650 cd         1 6RP      -0.276000
      3 CAK          2.8170     1.5040    -0.1980 cd         1 6RP       0.216900
      4 NAL          1.8140     1.0620    -0.9300 nc         1 6RP      -0.528300
      5 NAE          1.1950     0.1560    -0.1730 na         1 6RP       0.163800
      6 CA          -0.0240    -0.4550    -0.6370 c3         1 6RP       0.050300
      7 C           -0.0860    -1.9960    -0.3530 c          1 6RP       0.722000
      8 O            1.0110    -2.5660    -0.3120 o          1 6RP      -0.680000
      9 OXT         -1.2240    -2.4730    -0.2740 o          1 6RP      -0.680000
     10 N           -1.1750     0.2600    -0.1470 na         1 6RP       0.163800
     11 NAM         -1.7240     1.2200    -0.8910 nc         1 6RP      -0.528300
     12 CAN         -2.6680     1.7490    -0.1370 cd         1 6RP       0.216900
     13 CAJ         -2.7230     1.1290     1.1250 cd         1 6RP      -0.276000
     14 CAH         -1.7390     0.1730     1.0740 cc         1 6RP      -0.125500
     15 H1           1.4050    -0.6670     1.7790 h4         1 6RP       0.157000
     16 H2           3.5380     1.0380     1.8710 ha         1 6RP       0.122000
     17 H3           3.4940     2.2460    -0.5930 h4         1 6RP       0.012100
     18 H4          -0.0310    -0.3330    -1.7210 h2         1 6RP       0.103700
     19 H6          -3.2830     2.5500    -0.5170 h4         1 6RP       0.012100
     20 H7          -3.3870     1.3430     1.9450 ha         1 6RP       0.122000
     21 H8          -1.4180    -0.5470     1.8080 h4         1 6RP       0.157000
@<TRIPOS>BOND
     1     1     2 2   
     2     1     5 1   
     3     1    15 1   
     4     2     3 1   
     5     2    16 1   
     6     3     4 2   
     7     3    17 1   
     8     4     5 1   
     9     5     6 1   
    10     6     7 1   
    11     6    10 1   
    12     6    18 1   
    13     7     8 1   
    14     7     9 1   
    15    10    11 1   
    16    10    14 1   
    17    11    12 2   
    18    12    13 1   
    19    12    19 1   
    20    13    14 2   
    21    13    20 1   
    22    14    21 1   
@<TRIPOS>SUBSTRUCTURE
     1 6RP         1 TEMP              0 ****  ****    0 ROOT
