@<TRIPOS>MOLECULE
6RQ
   23    24     1     0     0
SMALL
No Charge or Current Charge


@<TRIPOS>ATOM
      1 C4          -0.5640    -0.6750     0.0230 ca         1 6RQ       0.100400
      2 C5          -0.5410     0.6900    -0.0530 ca         1 6RQ      -0.083200
      3 C6           0.6440     1.4310    -0.0820 ca         1 6RQ      -0.109000
      4 C7           1.8680     0.7240    -0.0290 ca         1 6RQ      -0.069300
      5 C8           3.1780     1.5060    -0.0590 c3         1 6RQ      -0.042800
      6 C11         -2.5930    -0.0480    -0.0340 cc         1 6RQ       0.624700
      7 C2           1.8620    -0.7000     0.0500 ca         1 6RQ      -0.089300
      8 C1           3.1670    -1.4890     0.1090 c3         1 6RQ      -0.042800
      9 C3           0.6320    -1.4020     0.0770 ca         1 6RQ      -0.064000
     10 N9          -1.8390     1.1000    -0.0900 na         1 6RQ      -0.350600
     11 N10         -1.8720    -1.1620     0.0360 nd         1 6RQ      -0.636100
     12 N12         -3.9250    -0.0350    -0.0470 nv         1 6RQ      -1.004200
     13 H1           0.6190     2.5160    -0.1430 ha         1 6RQ       0.112000
     14 H2           3.7680     1.3220     0.8460 hc         1 6RQ       0.039367
     15 H3           3.7880     1.2230    -0.9250 hc         1 6RQ       0.039367
     16 H4           3.0050     2.5870    -0.1220 hc         1 6RQ       0.039367
     17 H5           3.7780    -1.3090    -0.7830 hc         1 6RQ       0.038700
     18 H6           3.7590    -1.2090     0.9880 hc         1 6RQ       0.038700
     19 H7           2.9870    -2.5700     0.1680 hc         1 6RQ       0.038700
     20 H8           0.6050    -2.4870     0.1370 ha         1 6RQ       0.125000
     21 H9          -2.1900     2.0430    -0.1620 hn         1 6RQ       0.353000
     22 H11         -4.3860     0.8250     0.2280 hn         1 6RQ       0.470500
     23 H12         -4.3810    -0.8980     0.2250 hn         1 6RQ       0.470500
@<TRIPOS>BOND
     1     1     2 ar  
     2     1     9 ar  
     3     1    11 1   
     4     2     3 ar  
     5     2    10 1   
     6     3     4 ar  
     7     3    13 1   
     8     4     5 1   
     9     4     7 ar  
    10     5    14 1   
    11     5    15 1   
    12     5    16 1   
    13     6    10 1   
    14     6    11 2   
    15     6    12 1   
    16     7     8 1   
    17     7     9 ar  
    18     8    17 1   
    19     8    18 1   
    20     8    19 1   
    21     9    20 1   
    22    10    21 1   
    23    12    22 1   
    24    12    23 1   
@<TRIPOS>SUBSTRUCTURE
     1 6RQ         1 TEMP              0 ****  ****    0 ROOT
