@<TRIPOS>MOLECULE
6RQ
   23    24     1     0     0
SMALL
abcg2


@<TRIPOS>ATOM
      1 C4          -0.5530    -0.6890     0.0280 ca         1 6RQ       0.100400
      2 C5          -0.5220     0.7100    -0.0480 ca         1 6RQ      -0.083200
      3 C6           0.6620     1.4250    -0.0780 ca         1 6RQ      -0.109000
      4 C7           1.8610     0.7170    -0.0300 ca         1 6RQ      -0.069300
      5 C8           3.1640     1.4630    -0.0710 c3         1 6RQ      -0.042800
      6 C11         -2.5860    -0.0560    -0.0210 cc         1 6RQ       0.624700
      7 C2           1.8510    -0.6920     0.0510 ca         1 6RQ      -0.089300
      8 C1           3.1480    -1.4480     0.1150 c3         1 6RQ      -0.042800
      9 C3           0.6470    -1.3890     0.0780 ca         1 6RQ      -0.064000
     10 N9          -1.8470     1.0860    -0.0800 na         1 6RQ      -0.350600
     11 N10         -1.8550    -1.1410     0.0460 nd         1 6RQ      -0.636100
     12 N12         -3.9420    -0.0290    -0.0930 nv         1 6RQ      -1.004200
     13 H1           0.6660     2.5060    -0.1370 ha         1 6RQ       0.112000
     14 H2           3.7840     1.2550     0.8030 hc         1 6RQ       0.039367
     15 H3           3.7580     1.1950    -0.9480 hc         1 6RQ       0.039367
     16 H4           2.9990     2.5400    -0.1060 hc         1 6RQ       0.039367
     17 H5           3.7840    -1.2490    -0.7500 hc         1 6RQ       0.038700
     18 H6           3.7310    -1.1780     1.0000 hc         1 6RQ       0.038700
     19 H7           2.9750    -2.5230     0.1530 hc         1 6RQ       0.038700
     20 H8           0.6470    -2.4710     0.1380 ha         1 6RQ       0.125000
     21 H9          -2.2040     2.0260    -0.1440 hn         1 6RQ       0.353000
     22 H11         -4.4030     0.8030     0.2390 hn         1 6RQ       0.470500
     23 H12         -4.3960    -0.8760     0.2090 hn         1 6RQ       0.470500
@<TRIPOS>BOND
     1     1     2 ar  
     2     1     9 ar  
     3     1    11 1   
     4     2     3 ar  
     5     2    10 1   
     6     3     4 ar  
     7     3    13 1   
     8     4     5 1   
     9     4     7 ar  
    10     5    14 1   
    11     5    15 1   
    12     5    16 1   
    13     6    10 1   
    14     6    11 2   
    15     6    12 1   
    16     7     8 1   
    17     7     9 ar  
    18     8    17 1   
    19     8    18 1   
    20     8    19 1   
    21     9    20 1   
    22    10    21 1   
    23    12    22 1   
    24    12    23 1   
@<TRIPOS>SUBSTRUCTURE
     1 6RQ         1 TEMP              0 ****  ****    0 ROOT
