@<TRIPOS>MOLECULE
6RR
   32    33     1     0     0
SMALL
bcc


@<TRIPOS>ATOM
      1 O10         -3.0700     0.7830    -1.4180 o          1 6RR      -0.583800
      2 C15          4.5760     0.9440    -0.3680 ca         1 6RR       0.363200
      3 C14          3.4810     1.7240    -0.6870 ca         1 6RR      -0.209300
      4 C12         -1.5160    -1.0440    -0.3110 c6         1 6RR      -0.200600
      5 C02          3.2500    -0.8590     0.1530 ca         1 6RR       0.364600
      6 C03          2.0680    -0.1410    -0.1450 ca         1 6RR       0.048300
      7 N04          0.8480    -0.7760    -0.0490 nu         1 6RR      -0.737600
      8 C05         -0.3990    -0.0460    -0.0060 c6         1 6RR       0.243500
      9 C06         -0.6270     0.6650     1.3330 c6         1 6RR      -0.128400
     10 C07         -1.9290     1.4580     1.3950 c6         1 6RR      -0.054400
     11 C08         -3.1630     0.5830     1.2150 c6         1 6RR      -0.190600
     12 S09         -3.1120    -0.2390    -0.3690 s6         1 6RR       1.002000
     13 O11         -4.1590    -1.2580    -0.4400 o          1 6RR      -0.583800
     14 C13          2.2120     1.1790    -0.5710 ca         1 6RR      -0.165000
     15 N16          4.4510    -0.3170     0.0400 nb         1 6RR      -0.646000
     16 H2           3.6110     2.7460    -1.0170 ha         1 6RR       0.140000
     17 H3          -1.3770    -1.5200    -1.2850 h1         1 6RR       0.109700
     18 H4          -1.5820    -1.8210     0.4550 h1         1 6RR       0.109700
     19 H5           2.6760    -2.9170    -0.1400 hc         1 6RR       0.048700
     20 H6           4.1720    -2.6820     0.7670 hc         1 6RR       0.048700
     21 H7           2.6150    -2.3940     1.5380 hc         1 6RR       0.048700
     22 H8           0.8480    -1.5930     0.5450 hn         1 6RR       0.410800
     23 H9          -0.3920     0.6920    -0.8130 h1         1 6RR       0.086700
     24 H10         -0.6130    -0.0850     2.1310 hc         1 6RR       0.059200
     25 H11         -2.0090     1.9430     2.3690 hc         1 6RR       0.066200
     26 H12         -3.2220    -0.1970     1.9760 h1         1 6RR       0.105200
     27 H13         -4.0900     1.1590     1.2300 h1         1 6RR       0.105200
     28 H14          1.3510     1.7860    -0.8180 ha         1 6RR       0.137000
     29 H15          0.2070     1.3430     1.5220 hc         1 6RR       0.059200
     30 H16         -1.9290     2.2570     0.6510 hc         1 6RR       0.066200
     31 H1           5.5830     1.3360    -0.4400 h4         1 6RR       0.021100
     32 C01          3.1720    -2.2870     0.6020 c3         1 6RR      -0.145400
@<TRIPOS>BOND
     1     1    12 2   
     2     2     3 ar  
     3     2    15 ar  
     4     2    31 1   
     5     3    14 ar  
     6     3    16 1   
     7     4     8 1   
     8     4    12 1   
     9     4    17 1   
    10     4    18 1   
    11     5     6 ar  
    12     5    15 ar  
    13     5    32 1   
    14     6     7 1   
    15     6    14 ar  
    16     7     8 1   
    17     7    22 1   
    18     8     9 1   
    19     8    23 1   
    20     9    10 1   
    21     9    24 1   
    22     9    29 1   
    23    10    11 1   
    24    10    25 1   
    25    10    30 1   
    26    11    12 1   
    27    11    26 1   
    28    11    27 1   
    29    12    13 2   
    30    14    28 1   
    31    19    32 1   
    32    20    32 1   
    33    21    32 1   
@<TRIPOS>SUBSTRUCTURE
     1 6RR         1 TEMP              0 ****  ****    0 ROOT
