@<TRIPOS>MOLECULE
6RR
   32    33     1     0     0
SMALL
No Charge or Current Charge


@<TRIPOS>ATOM
      1 O10         -3.2940     0.8540    -1.3060 o          1 6RR      -0.513000
      2 C15          4.6180     0.9850    -0.2110 ca         1 6RR       0.297900
      3 C14          3.5680     1.7210    -0.7870 ca         1 6RR      -0.126000
      4 C12         -1.5900    -1.0040    -0.4300 c6         1 6RR      -0.311400
      5 C02          3.2060    -0.7990     0.2510 ca         1 6RR       0.299300
      6 C03          2.0730    -0.1270    -0.3100 ca         1 6RR       0.252000
      7 N04          0.7880    -0.7190    -0.3530 nu         1 6RR      -0.931200
      8 C05         -0.4700     0.0090    -0.1760 c6         1 6RR       0.243500
      9 C06         -0.5350     0.5950     1.2590 c6         1 6RR      -0.128400
     10 C07         -1.8420     1.3830     1.5220 c6         1 6RR      -0.054400
     11 C08         -3.0970     0.4910     1.3400 c6         1 6RR      -0.301400
     12 S09         -3.2170    -0.2310    -0.3200 s6         1 6RR       1.082000
     13 O11         -4.2410    -1.2830    -0.3050 o          1 6RR      -0.513000
     14 C13          2.2790     1.1610    -0.8410 ca         1 6RR      -0.147000
     15 N16          4.4510    -0.2560     0.3010 nb         1 6RR      -0.646000
     16 H2           3.7590     2.7120    -1.1880 ha         1 6RR       0.122000
     17 H3          -1.5270    -1.4250    -1.4400 h1         1 6RR       0.109700
     18 H4          -1.5850    -1.8100     0.3120 h1         1 6RR       0.109700
     19 H5           2.7750    -2.9200     0.0840 hc         1 6RR       0.048700
     20 H6           4.0300    -2.5480     1.2730 hc         1 6RR       0.048700
     21 H7           2.3350    -2.2130     1.6500 hc         1 6RR       0.048700
     22 H8           0.7710    -1.7080    -0.1020 hn         1 6RR       0.466000
     23 H9          -0.5520     0.8270    -0.9110 h1         1 6RR       0.086700
     24 H10         -0.4350    -0.2110     1.9990 hc         1 6RR       0.059200
     25 H11         -1.8250     1.7890     2.5440 hc         1 6RR       0.066200
     26 H12         -3.0840    -0.3560     2.0370 h1         1 6RR       0.105200
     27 H13         -4.0200     1.0650     1.4880 h1         1 6RR       0.105200
     28 H14          1.4650     1.7190    -1.2940 ha         1 6RR       0.119000
     29 H15          0.3180     1.2670     1.4220 hc         1 6RR       0.059200
     30 H16         -1.8950     2.2520     0.8500 hc         1 6RR       0.066200
     31 H1           5.6240     1.4000    -0.1600 h4         1 6RR       0.021100
     32 C01          3.0820    -2.1960     0.8470 c3         1 6RR      -0.145400
@<TRIPOS>BOND
     1     1    12 2   
     2     2     3 ar  
     3     2    15 ar  
     4     2    31 1   
     5     3    14 ar  
     6     3    16 1   
     7     4     8 1   
     8     4    12 1   
     9     4    17 1   
    10     4    18 1   
    11     5     6 ar  
    12     5    15 ar  
    13     5    32 1   
    14     6     7 1   
    15     6    14 ar  
    16     7     8 1   
    17     7    22 1   
    18     8     9 1   
    19     8    23 1   
    20     9    10 1   
    21     9    24 1   
    22     9    29 1   
    23    10    11 1   
    24    10    25 1   
    25    10    30 1   
    26    11    12 1   
    27    11    26 1   
    28    11    27 1   
    29    12    13 2   
    30    14    28 1   
    31    19    32 1   
    32    20    32 1   
    33    21    32 1   
@<TRIPOS>SUBSTRUCTURE
     1 6RR         1 TEMP              0 ****  ****    0 ROOT
