@<TRIPOS>MOLECULE
6RS
   41    43     1     0     0
SMALL
bcc


@<TRIPOS>ATOM
      1 C17          5.3020     0.1180    -1.4980 c3         1 6RS      -0.145400
      2 C14          3.1070    -0.5290     0.6020 ca         1 6RS       0.084100
      3 C13          2.6440     0.6580     0.0230 ca         1 6RS       0.078100
      4 C20          2.2180    -1.3150     1.3250 ca         1 6RS      -0.133000
      5 C18          4.1010     0.9810    -1.8190 c3         1 6RS       0.140400
      6 O15          4.4060    -0.9150     0.5360 os         1 6RS      -0.327900
      7 C01         -1.4990     0.6240     2.5170 c3         1 6RS      -0.122100
      8 C02         -1.0170     0.6720     1.0670 c3         1 6RS       0.272800
      9 N03         -1.8160    -0.1540     0.1750 nu         1 6RS      -0.754600
     10 C04         -3.1140     0.1470    -0.1580 ca         1 6RS       0.069300
     11 C05         -3.9230    -0.8340    -0.7820 ca         1 6RS       0.354600
     12 C06         -3.3820    -2.2100    -1.0290 c3         1 6RS      -0.143400
     13 N07         -5.1610    -0.5840    -1.1730 nb         1 6RS      -0.645000
     14 C08         -5.6870     0.6250    -0.9860 ca         1 6RS       0.352200
     15 C09         -4.9790     1.6470    -0.3840 ca         1 6RS      -0.206300
     16 C10         -3.6810     1.4070     0.0410 ca         1 6RS      -0.176000
     17 C11          0.4290     0.2520     0.9270 ca         1 6RS      -0.089300
     18 C12          1.3140     1.0260     0.1850 ca         1 6RS      -0.112000
     19 C16          4.9480    -1.1570    -0.7600 c3         1 6RS       0.141400
     20 O19          3.4630     1.5010    -0.6550 os         1 6RS      -0.326900
     21 C21          0.8990    -0.9280     1.4960 ca         1 6RS      -0.122000
     22 H1           5.7800    -0.1610    -2.4420 hc         1 6RS       0.063200
     23 H2           6.0370     0.6920    -0.9280 hc         1 6RS       0.063200
     24 H3           2.5780    -2.2330     1.7740 ha         1 6RS       0.145000
     25 H4           4.4110     1.8520    -2.3970 h1         1 6RS       0.053200
     26 H5           3.3770     0.4210    -2.4220 h1         1 6RS       0.053200
     27 H7          -1.4390    -0.3880     2.9200 hc         1 6RS       0.045033
     28 H8          -0.8950     1.2780     3.1460 hc         1 6RS       0.045033
     29 H9          -1.0890     1.7040     0.7150 h1         1 6RS       0.065700
     30 H10         -1.5990    -1.1370     0.2230 hn         1 6RS       0.417800
     31 H11         -3.0970    -2.7120    -0.1000 hc         1 6RS       0.047033
     32 H12         -4.1340    -2.8240    -1.5200 hc         1 6RS       0.047033
     33 H13         -2.4930    -2.1870    -1.6640 hc         1 6RS       0.047033
     34 H14         -6.7040     0.7740    -1.3290 h4         1 6RS       0.018100
     35 H15         -5.4290     2.6200    -0.2410 ha         1 6RS       0.136000
     36 H16         -3.1250     2.2030     0.5180 ha         1 6RS       0.135000
     37 H17          0.9770     1.9490    -0.2710 ha         1 6RS       0.146000
     38 H18          4.2480    -1.7590    -1.3520 h1         1 6RS       0.052700
     39 H19          5.8440    -1.7550    -0.5950 h1         1 6RS       0.052700
     40 H20          0.2410    -1.5600     2.0790 ha         1 6RS       0.133000
     41 H6          -2.5370     0.9490     2.5950 hc         1 6RS       0.045033
@<TRIPOS>BOND
     1     1     5 1   
     2     1    19 1   
     3     1    22 1   
     4     1    23 1   
     5     2     3 ar  
     6     2     4 ar  
     7     2     6 1   
     8     3    18 ar  
     9     3    20 1   
    10     4    21 ar  
    11     4    24 1   
    12     5    20 1   
    13     5    25 1   
    14     5    26 1   
    15     6    19 1   
    16     7     8 1   
    17     7    27 1   
    18     7    28 1   
    19     7    41 1   
    20     8     9 1   
    21     8    17 1   
    22     8    29 1   
    23     9    10 1   
    24     9    30 1   
    25    10    11 ar  
    26    10    16 ar  
    27    11    12 1   
    28    11    13 ar  
    29    12    31 1   
    30    12    32 1   
    31    12    33 1   
    32    13    14 ar  
    33    14    15 ar  
    34    14    34 1   
    35    15    16 ar  
    36    15    35 1   
    37    16    36 1   
    38    17    18 ar  
    39    17    21 ar  
    40    18    37 1   
    41    19    38 1   
    42    19    39 1   
    43    21    40 1   
@<TRIPOS>SUBSTRUCTURE
     1 6RS         1 TEMP              0 ****  ****    0 ROOT
