@<TRIPOS>MOLECULE
6RS
   41    43     1     0     0
SMALL
No Charge or Current Charge


@<TRIPOS>ATOM
      1 C17          5.6220     0.2320    -1.1450 c3         1 6RS      -0.145400
      2 C14          3.0870    -0.6980     0.4020 ca         1 6RS       0.084100
      3 C13          2.7230     0.5940    -0.0700 ca         1 6RS       0.078100
      4 C20          2.1170    -1.4970     1.0320 ca         1 6RS      -0.115000
      5 C18          4.5020     1.1250    -1.6910 c3         1 6RS       0.163600
      6 O15          4.3690    -1.2030     0.3570 os         1 6RS      -0.351100
      7 C01         -1.4940     0.6980     2.3390 c3         1 6RS      -0.122100
      8 C02         -1.0040     0.7540     0.8770 c3         1 6RS       0.272800
      9 N03         -1.8930    -0.0300     0.0120 nu         1 6RS      -0.948200
     10 C04         -3.2730     0.1770    -0.2100 ca         1 6RS       0.273000
     11 C05         -4.1640    -0.8950    -0.5380 ca         1 6RS       0.289300
     12 C06         -3.6660    -2.3310    -0.6550 c3         1 6RS      -0.143400
     13 N07         -5.4940    -0.7220    -0.7620 nb         1 6RS      -0.645000
     14 C08         -5.9910     0.5320    -0.6700 ca         1 6RS       0.286900
     15 C09         -5.1950     1.6480    -0.3580 ca         1 6RS      -0.123000
     16 C10         -3.8180     1.4730    -0.1270 ca         1 6RS      -0.158000
     17 C11          0.4270     0.2360     0.7190 ca         1 6RS      -0.089300
     18 C12          1.4030     1.0470     0.1050 ca         1 6RS      -0.094000
     19 C16          5.1550    -1.1960    -0.8430 c3         1 6RS       0.164600
     20 O19          3.6130     1.4890    -0.6270 os         1 6RS      -0.350100
     21 C21          0.7960    -1.0440     1.1780 ca         1 6RS      -0.104000
     22 H1           6.4150     0.1790    -1.9000 hc         1 6RS       0.063200
     23 H2           6.0680     0.6850    -0.2510 hc         1 6RS       0.063200
     24 H3           2.3940    -2.4780     1.4080 ha         1 6RS       0.127000
     25 H4           4.9560     2.0320    -2.1120 h1         1 6RS       0.053200
     26 H5           3.9630     0.6170    -2.5020 h1         1 6RS       0.053200
     27 H7          -1.5750    -0.3340     2.6960 hc         1 6RS       0.045033
     28 H8          -0.7960     1.2350     2.9920 hc         1 6RS       0.045033
     29 H9          -1.0200     1.8070     0.5590 h1         1 6RS       0.065700
     30 H10         -1.5540    -0.9650    -0.2160 hn         1 6RS       0.473000
     31 H11         -3.1930    -2.6570     0.2780 hc         1 6RS       0.047033
     32 H12         -4.4800    -3.0330    -0.8730 hc         1 6RS       0.047033
     33 H13         -2.9270    -2.4230    -1.4600 hc         1 6RS       0.047033
     34 H14         -7.0590     0.6460    -0.8530 h4         1 6RS       0.018100
     35 H15         -5.6450     2.6350    -0.3010 ha         1 6RS       0.118000
     36 H16         -3.1940     2.3310     0.1060 ha         1 6RS       0.117000
     37 H17          1.1380     2.0420    -0.2440 ha         1 6RS       0.128000
     38 H18          4.5880    -1.6050    -1.6900 h1         1 6RS       0.052700
     39 H19          6.0420    -1.8270    -0.7000 h1         1 6RS       0.052700
     40 H20          0.0630    -1.6900     1.6570 ha         1 6RS       0.115000
     41 H6          -2.4780     1.1710     2.4380 hc         1 6RS       0.045033
@<TRIPOS>BOND
     1     1     5 1   
     2     1    19 1   
     3     1    22 1   
     4     1    23 1   
     5     2     3 ar  
     6     2     4 ar  
     7     2     6 1   
     8     3    18 ar  
     9     3    20 1   
    10     4    21 ar  
    11     4    24 1   
    12     5    20 1   
    13     5    25 1   
    14     5    26 1   
    15     6    19 1   
    16     7     8 1   
    17     7    27 1   
    18     7    28 1   
    19     7    41 1   
    20     8     9 1   
    21     8    17 1   
    22     8    29 1   
    23     9    10 1   
    24     9    30 1   
    25    10    11 ar  
    26    10    16 ar  
    27    11    12 1   
    28    11    13 ar  
    29    12    31 1   
    30    12    32 1   
    31    12    33 1   
    32    13    14 ar  
    33    14    15 ar  
    34    14    34 1   
    35    15    16 ar  
    36    15    35 1   
    37    16    36 1   
    38    17    18 ar  
    39    17    21 ar  
    40    18    37 1   
    41    19    38 1   
    42    19    39 1   
    43    21    40 1   
@<TRIPOS>SUBSTRUCTURE
     1 6RS         1 TEMP              0 ****  ****    0 ROOT
