@<TRIPOS>MOLECULE
6RT
   39    43     1     0     0
SMALL
No Charge or Current Charge


@<TRIPOS>ATOM
      1 C11         83.0240   -70.7900   118.4700 ca         1 6RT       0.361400
      2 C12         85.3890   -71.1530   119.2920 cx         1 6RT       0.107800
      3 C13         85.4830   -70.3070   118.0500 cx         1 6RT       0.107800
      4 C14         80.8160   -71.1340   118.1290 ca         1 6RT       0.361400
      5 N1          82.8000   -69.6740   119.1950 nb         1 6RT      -0.252000
      6 C16         78.6160   -71.3340   116.9030 cx         1 6RT       0.107800
      7 C15         78.4770   -72.1220   118.1780 cx         1 6RT       0.107800
      8 N3          82.0720   -71.5590   117.9140 nb         1 6RT      -0.260000
      9 N4          79.7990   -71.8980   117.5720 nm         1 6RT      -0.672800
     10 N5          80.4790   -70.0390   118.8350 nb         1 6RT      -0.252000
     11 N2          84.3360   -71.2000   118.2670 nm         1 6RT      -0.672800
     12 C           81.5030   -69.3310   119.3540 ca         1 6RT       0.283500
     13 C1          81.1920   -68.1270   120.1410 cc         1 6RT      -0.253500
     14 N           79.9670   -67.5370   120.4570 na         1 6RT       0.132200
     15 C4          80.1130   -66.4050   121.2500 cc         1 6RT      -0.157000
     16 C3          81.4700   -66.2880   121.4310 cd         1 6RT      -0.197000
     17 C2          82.1370   -67.3410   120.7540 cd         1 6RT      -0.095000
     18 C5          78.7230   -68.0000   120.0300 ca         1 6RT       0.014800
     19 C10         78.2320   -67.6410   118.7600 ca         1 6RT      -0.098500
     20 C9          76.9880   -68.1280   118.3200 ca         1 6RT      -0.105000
     21 C8          76.2330   -68.9760   119.1490 ca         1 6RT      -0.111000
     22 C7          76.7180   -69.3330   120.4190 ca         1 6RT      -0.105000
     23 C6          77.9610   -68.8460   120.8590 ca         1 6RT      -0.098500
     24 H2          86.0200   -72.0380   119.3810 h1         1 6RT       0.088200
     25 H3          85.3060   -69.2340   118.1340 h1         1 6RT       0.088200
     26 H4          86.1800   -70.5940   117.2620 h1         1 6RT       0.088200
     27 H5          78.4870   -70.2510   116.9430 h1         1 6RT       0.088200
     28 H6          78.3260   -71.7940   115.9590 h1         1 6RT       0.088200
     29 H7          78.2500   -71.5850   119.1000 h1         1 6RT       0.088200
     30 H8          78.0880   -73.1400   118.1340 h1         1 6RT       0.088200
     31 H9          79.2790   -65.8090   121.5980 h4         1 6RT       0.150000
     32 H10         81.9580   -65.5060   122.0070 ha         1 6RT       0.138000
     33 H11         83.2130   -67.4940   120.7320 ha         1 6RT       0.149000
     34 H12         78.8180   -66.9910   118.1140 ha         1 6RT       0.127000
     35 H13         76.6120   -67.8510   117.3380 ha         1 6RT       0.117500
     36 H14         75.2710   -69.3540   118.8080 ha         1 6RT       0.116000
     37 H15         76.1330   -69.9890   121.0600 ha         1 6RT       0.117500
     38 H16         78.3380   -69.1290   121.8400 ha         1 6RT       0.127000
     39 H1          85.1470   -70.6670   120.2380 h1         1 6RT       0.088200
@<TRIPOS>BOND
     1     1     5 ar  
     2     1     8 ar  
     3     1    11 1   
     4     2     3 1   
     5     2    11 1   
     6     2    24 1   
     7     2    39 1   
     8     3    11 1   
     9     3    25 1   
    10     3    26 1   
    11     4     8 ar  
    12     4     9 1   
    13     4    10 ar  
    14     5    12 ar  
    15     6     7 1   
    16     6     9 1   
    17     6    27 1   
    18     6    28 1   
    19     7     9 1   
    20     7    29 1   
    21     7    30 1   
    22    10    12 ar  
    23    12    13 1   
    24    13    14 1   
    25    13    17 2   
    26    14    15 1   
    27    14    18 1   
    28    15    16 2   
    29    15    31 1   
    30    16    17 1   
    31    16    32 1   
    32    17    33 1   
    33    18    19 ar  
    34    18    23 ar  
    35    19    20 ar  
    36    19    34 1   
    37    20    21 ar  
    38    20    35 1   
    39    21    22 ar  
    40    21    36 1   
    41    22    23 ar  
    42    22    37 1   
    43    23    38 1   
@<TRIPOS>SUBSTRUCTURE
     1 6RT         1 TEMP              0 ****  ****    0 ROOT
