@<TRIPOS>MOLECULE
6RT
   39    43     1     0     0
SMALL
abcg2


@<TRIPOS>ATOM
      1 C11         83.0170   -70.4760   118.6230 ca         1 6RT       0.361400
      2 C12         84.6320   -72.2870   119.1740 cx         1 6RT       0.107800
      3 C13         85.0440   -71.0680   119.9360 cx         1 6RT       0.107800
      4 C14         80.9210   -70.6470   117.8240 ca         1 6RT       0.361400
      5 N1          82.7730   -69.2900   119.1850 nb         1 6RT      -0.252000
      6 C16         78.6290   -71.5570   117.5250 cx         1 6RT       0.107800
      7 C15         79.5880   -72.6850   117.3150 cx         1 6RT       0.107800
      8 N3          82.1240   -71.2130   117.9510 nb         1 6RT      -0.260000
      9 N4          79.9840   -71.3110   117.0660 nm         1 6RT      -0.672800
     10 N5          80.5720   -69.4550   118.3180 nb         1 6RT      -0.252000
     11 N2          84.3030   -70.9570   118.6940 nm         1 6RT      -0.672800
     12 C           81.5260   -68.8210   119.0090 ca         1 6RT       0.283500
     13 C1          81.2260   -67.5280   119.5930 cc         1 6RT      -0.253500
     14 N           79.9460   -67.0310   119.8050 na         1 6RT       0.132200
     15 C4          80.0420   -65.7360   120.2370 cc         1 6RT      -0.157000
     16 C3          81.3750   -65.3830   120.2970 cd         1 6RT      -0.197000
     17 C2          82.1210   -66.5120   119.9000 cd         1 6RT      -0.095000
     18 C5          78.7160   -67.7560   119.8080 ca         1 6RT       0.014800
     19 C10         77.6690   -67.3270   119.0030 ca         1 6RT      -0.098500
     20 C9          76.4600   -68.0160   119.0250 ca         1 6RT      -0.105000
     21 C8          76.3050   -69.1300   119.8430 ca         1 6RT      -0.111000
     22 C7          77.3590   -69.5480   120.6520 ca         1 6RT      -0.105000
     23 C6          78.5640   -68.8590   120.6420 ca         1 6RT      -0.098500
     24 H2          85.3610   -72.8310   118.5880 h1         1 6RT       0.088200
     25 H3          84.5050   -70.8390   120.8470 h1         1 6RT       0.088200
     26 H4          86.0730   -70.7310   119.9000 h1         1 6RT       0.088200
     27 H5          78.3990   -71.2720   118.5440 h1         1 6RT       0.088200
     28 H6          77.8490   -71.3710   116.7980 h1         1 6RT       0.088200
     29 H7          80.0030   -73.1610   118.1950 h1         1 6RT       0.088200
     30 H8          79.4990   -73.3130   116.4380 h1         1 6RT       0.088200
     31 H9          79.1550   -65.1880   120.5040 h4         1 6RT       0.150000
     32 H10         81.7600   -64.4210   120.5930 ha         1 6RT       0.138000
     33 H11         83.1900   -66.5850   119.7970 ha         1 6RT       0.149000
     34 H12         77.8070   -66.4700   118.3570 ha         1 6RT       0.127000
     35 H13         75.6450   -67.6860   118.3940 ha         1 6RT       0.117500
     36 H14         75.3670   -69.6700   119.8530 ha         1 6RT       0.116000
     37 H15         77.2410   -70.4100   121.2960 ha         1 6RT       0.117500
     38 H16         79.3880   -69.1740   121.2680 ha         1 6RT       0.127000
     39 H1          83.8160   -72.8760   119.5750 h1         1 6RT       0.088200
@<TRIPOS>BOND
     1     1     5 ar  
     2     1     8 ar  
     3     1    11 1   
     4     2     3 1   
     5     2    11 1   
     6     2    24 1   
     7     2    39 1   
     8     3    11 1   
     9     3    25 1   
    10     3    26 1   
    11     4     8 ar  
    12     4     9 1   
    13     4    10 ar  
    14     5    12 ar  
    15     6     7 1   
    16     6     9 1   
    17     6    27 1   
    18     6    28 1   
    19     7     9 1   
    20     7    29 1   
    21     7    30 1   
    22    10    12 ar  
    23    12    13 1   
    24    13    14 1   
    25    13    17 2   
    26    14    15 1   
    27    14    18 1   
    28    15    16 2   
    29    15    31 1   
    30    16    17 1   
    31    16    32 1   
    32    17    33 1   
    33    18    19 ar  
    34    18    23 ar  
    35    19    20 ar  
    36    19    34 1   
    37    20    21 ar  
    38    20    35 1   
    39    21    22 ar  
    40    21    36 1   
    41    22    23 ar  
    42    22    37 1   
    43    23    38 1   
@<TRIPOS>SUBSTRUCTURE
     1 6RT         1 TEMP              0 ****  ****    0 ROOT
