@<TRIPOS>MOLECULE
6RU
   43    45     1     0     0
SMALL
No Charge or Current Charge


@<TRIPOS>ATOM
      1 C1          -5.1690     0.3890    -0.0860 c3         1 6RU       0.222350
      2 C2          -2.7180    -0.2340    -0.0160 ca         1 6RU       0.435900
      3 C3          -0.5050    -0.7990     0.0460 ca         1 6RU       0.302500
      4 C4           0.5510    -1.8240     0.0190 cc         1 6RU      -0.240500
      5 C5           0.3100    -3.1750     0.0740 cd         1 6RU      -0.111000
      6 C6           1.5560    -3.8520     0.0750 cd         1 6RU      -0.197000
      7 C7           2.5790    -2.9380     0.0220 cc         1 6RU      -0.171000
      8 C8           2.6420    -0.5040    -0.1510 ca         1 6RU       0.019800
      9 C9           2.6180     0.1930    -1.3750 ca         1 6RU      -0.097500
     10 C10          3.3260     1.4000    -1.5160 ca         1 6RU      -0.107500
     11 C11          4.0610     1.9140    -0.4340 ca         1 6RU      -0.114000
     12 C12          4.0910     1.2190     0.7880 ca         1 6RU      -0.107500
     13 C16         -1.8380     3.8150     0.3720 c3         1 6RU       0.222350
     14 C15          0.6230     3.1840     0.4040 c3         1 6RU       0.222350
     15 C14         -1.1450     1.3870     0.2050 ca         1 6RU       0.435900
     16 N5          -2.4490     1.0770     0.1120 nb         1 6RU      -0.357000
     17 N           -4.0770    -0.6190    -0.1180 nh         1 6RU      -0.770800
     18 C           -4.4670    -2.0460    -0.2620 c3         1 6RU       0.222350
     19 N3          -0.1440     0.4910     0.1790 nb         1 6RU      -0.315000
     20 N1          -1.7870    -1.2060    -0.0540 nb         1 6RU      -0.315000
     21 N2           1.9420    -1.7020    -0.0100 na         1 6RU       0.137200
     22 C13          3.3860     0.0110     0.9280 ca         1 6RU      -0.097500
     23 H1          -5.0610     1.1010    -0.9160 h1         1 6RU       0.043783
     24 H2          -6.1560    -0.0830    -0.1780 h1         1 6RU       0.043783
     25 H3          -5.1510     0.9450     0.8610 h1         1 6RU       0.043783
     26 H4          -0.6660    -3.6530     0.1190 ha         1 6RU       0.144000
     27 H5           1.6830    -4.9300     0.1120 ha         1 6RU       0.134000
     28 H6           3.6560    -3.0530    -0.0030 h4         1 6RU       0.148000
     29 H7           2.0470    -0.2010    -2.2130 ha         1 6RU       0.127000
     30 H8           3.3030     1.9360    -2.4620 ha         1 6RU       0.115500
     31 H9           4.6070     2.8480    -0.5420 ha         1 6RU       0.114000
     32 H10          4.6620     1.6160     1.6250 ha         1 6RU       0.115500
     33 H11         -2.4290     3.8020    -0.5540 h1         1 6RU       0.043783
     34 H12         -2.5140     3.6650     1.2250 h1         1 6RU       0.043783
     35 H13         -1.3910     4.8130     0.4690 h1         1 6RU       0.043783
     36 H14          0.7090     4.2580     0.6190 h1         1 6RU       0.043783
     37 H15          1.1570     2.6440     1.1970 h1         1 6RU       0.043783
     38 H16          1.1240     2.9900    -0.5540 h1         1 6RU       0.043783
     39 H17         -5.5570    -2.1620    -0.3270 h1         1 6RU       0.043783
     40 H18         -4.0300    -2.4730    -1.1750 h1         1 6RU       0.043783
     41 H19         -4.1190    -2.6280     0.6020 h1         1 6RU       0.043783
     42 H20          3.4120    -0.5240     1.8750 ha         1 6RU       0.127000
     43 N4          -0.7990     2.7540     0.3400 nh         1 6RU      -0.770800
@<TRIPOS>BOND
     1     1    17 1   
     2     1    23 1   
     3     1    24 1   
     4     1    25 1   
     5     2    16 ar  
     6     2    17 1   
     7     2    20 ar  
     8     3     4 1   
     9     3    19 ar  
    10     3    20 ar  
    11     4     5 2   
    12     4    21 1   
    13     5     6 1   
    14     5    26 1   
    15     6     7 2   
    16     6    27 1   
    17     7    21 1   
    18     7    28 1   
    19     8     9 ar  
    20     8    21 1   
    21     8    22 ar  
    22     9    10 ar  
    23     9    29 1   
    24    10    11 ar  
    25    10    30 1   
    26    11    12 ar  
    27    11    31 1   
    28    12    22 ar  
    29    12    32 1   
    30    13    33 1   
    31    13    34 1   
    32    13    35 1   
    33    13    43 1   
    34    14    36 1   
    35    14    37 1   
    36    14    38 1   
    37    14    43 1   
    38    15    16 ar  
    39    15    19 ar  
    40    15    43 1   
    41    17    18 1   
    42    18    39 1   
    43    18    40 1   
    44    18    41 1   
    45    22    42 1   
@<TRIPOS>SUBSTRUCTURE
     1 6RU         1 TEMP              0 ****  ****    0 ROOT
