@<TRIPOS>MOLECULE
6RU
   43    45     1     0     0
SMALL
bcc


@<TRIPOS>ATOM
      1 C1          -5.0000     0.4510    -0.3770 c3         1 6RU       0.222350
      2 C2          -2.6710    -0.2080    -0.0750 ca         1 6RU       0.961900
      3 C3          -0.5180    -0.7950     0.1910 ca         1 6RU       0.828500
      4 C4           0.4970    -1.8390     0.2180 cc         1 6RU      -0.189800
      5 C5           0.3090    -3.1910     0.4200 cd         1 6RU      -0.129000
      6 C6           1.5800    -3.7920     0.5030 cd         1 6RU      -0.215000
      7 C7           2.5070    -2.7920     0.3390 cc         1 6RU      -0.138300
      8 C8           2.5240    -0.4100    -0.1880 ca         1 6RU       0.019800
      9 C9           2.3390     0.1290    -1.4540 ca         1 6RU      -0.115500
     10 C10          3.0310     1.2720    -1.8200 ca         1 6RU      -0.125500
     11 C11          3.9160     1.8690    -0.9300 ca         1 6RU      -0.132000
     12 C12          4.1050     1.3160     0.3290 ca         1 6RU      -0.125500
     13 C16         -1.7790     3.6710     0.5770 c3         1 6RU       0.222350
     14 C15          0.6090     2.9650     0.9030 c3         1 6RU       0.222350
     15 C14         -1.1190     1.3510     0.4170 ca         1 6RU       0.961900
     16 N5          -2.3930     1.0800     0.1380 nb         1 6RU      -0.883000
     17 N           -3.9560    -0.5450    -0.2970 nh         1 6RU      -0.770800
     18 C           -4.3480    -1.8860    -0.6630 c3         1 6RU       0.222350
     19 N3          -0.1370     0.4390     0.4690 nb         1 6RU      -0.841000
     20 N1          -1.7550    -1.1880    -0.0850 nb         1 6RU      -0.841000
     21 N2           1.8530    -1.6090     0.1740 na         1 6RU       0.035800
     22 C13          3.4080     0.1760     0.7040 ca         1 6RU      -0.115500
     23 H1          -5.2500     0.6860    -1.4160 h1         1 6RU       0.043783
     24 H2          -5.8990     0.0690     0.1060 h1         1 6RU       0.043783
     25 H3          -4.6970     1.3650     0.1210 h1         1 6RU       0.043783
     26 H4          -0.6490    -3.6710     0.5350 ha         1 6RU       0.162000
     27 H5           1.7990    -4.8360     0.6610 ha         1 6RU       0.152000
     28 H6           3.5840    -2.8350     0.2910 h4         1 6RU       0.166000
     29 H7           1.6570    -0.3460    -2.1480 ha         1 6RU       0.145000
     30 H8           2.8850     1.6920    -2.8060 ha         1 6RU       0.133500
     31 H9           4.4560     2.7610    -1.2180 ha         1 6RU       0.132000
     32 H10          4.7930     1.7760     1.0260 ha         1 6RU       0.133500
     33 H11         -2.0440     3.9010    -0.4580 h1         1 6RU       0.043783
     34 H12         -2.6910     3.3900     1.1000 h1         1 6RU       0.043783
     35 H13         -1.3870     4.5740     1.0360 h1         1 6RU       0.043783
     36 H14          0.6710     4.0220     1.1480 h1         1 6RU       0.043783
     37 H15          1.0230     2.3950     1.7340 h1         1 6RU       0.043783
     38 H16          1.2360     2.7740     0.0310 h1         1 6RU       0.043783
     39 H17         -5.2260    -2.1820    -0.0870 h1         1 6RU       0.043783
     40 H18         -4.6080    -1.9440    -1.7240 h1         1 6RU       0.043783
     41 H19         -3.5460    -2.5870    -0.4640 h1         1 6RU       0.043783
     42 H20          3.5430    -0.2490     1.6910 ha         1 6RU       0.145000
     43 N4          -0.7820     2.6260     0.6700 nh         1 6RU      -0.770800
@<TRIPOS>BOND
     1     1    17 1   
     2     1    23 1   
     3     1    24 1   
     4     1    25 1   
     5     2    16 ar  
     6     2    17 1   
     7     2    20 ar  
     8     3     4 1   
     9     3    19 ar  
    10     3    20 ar  
    11     4     5 2   
    12     4    21 1   
    13     5     6 1   
    14     5    26 1   
    15     6     7 2   
    16     6    27 1   
    17     7    21 1   
    18     7    28 1   
    19     8     9 ar  
    20     8    21 1   
    21     8    22 ar  
    22     9    10 ar  
    23     9    29 1   
    24    10    11 ar  
    25    10    30 1   
    26    11    12 ar  
    27    11    31 1   
    28    12    22 ar  
    29    12    32 1   
    30    13    33 1   
    31    13    34 1   
    32    13    35 1   
    33    13    43 1   
    34    14    36 1   
    35    14    37 1   
    36    14    38 1   
    37    14    43 1   
    38    15    16 ar  
    39    15    19 ar  
    40    15    43 1   
    41    17    18 1   
    42    18    39 1   
    43    18    40 1   
    44    18    41 1   
    45    22    42 1   
@<TRIPOS>SUBSTRUCTURE
     1 6RU         1 TEMP              0 ****  ****    0 ROOT
