@<TRIPOS>MOLECULE
6RV
   38    41     1     0     0
SMALL
No Charge or Current Charge


@<TRIPOS>ATOM
      1 C4          -0.8800    -0.4700    -0.5420 cc         1 6RV      -0.025000
      2 C6          -1.2430     1.8930    -0.2840 c          1 6RV       0.539000
      3 C11         -4.1100    -2.1420     0.9540 c3         1 6RV       0.402300
      4 C8          -2.9510     0.1190     0.2690 cc         1 6RV       0.048700
      5 C9          -3.0110    -1.2650     0.3970 cd         1 6RV      -0.395300
      6 N3           0.3500    -0.4060    -1.0460 nd         1 6RV      -0.324600
      7 C1           0.1020     1.9710    -0.8480 cc         1 6RV      -0.370200
      8 C2           0.8710     0.8810    -1.2250 cd         1 6RV       0.179400
      9 N5          -1.7050     0.5710    -0.1930 n          1 6RV      -0.023800
     10 O7          -1.8560     2.8910     0.0680 o          1 6RV      -0.494000
     11 S10         -1.5460    -2.0510    -0.2280 ss         1 6RV       0.328000
     12 F12         -3.6220    -3.2950     1.4630 f          1 6RV      -0.100667
     13 F13         -4.7930    -1.5420     1.9540 f          1 6RV      -0.100667
     14 F14         -5.0050    -2.4850     0.0020 f          1 6RV      -0.100667
     15 C15         -4.0480     1.0700     0.5890 cx         1 6RV      -0.064400
     16 C16         -5.4550     0.8010     0.0900 cx         1 6RV      -0.087400
     17 C17         -4.6540     1.9280    -0.5110 cx         1 6RV      -0.048600
     18 C18         -5.0450     3.2950    -0.2330 c1         1 6RV       0.331900
     19 N19         -5.3970     4.3820    -0.0070 n1         1 6RV      -0.437000
     20 C20          2.2630     0.9970    -1.7970 c3         1 6RV       0.128800
     21 N21          3.3280     0.5580    -0.8810 na         1 6RV       0.155800
     22 C22          3.7040     1.1680     0.3120 cc         1 6RV       0.033000
     23 C23          4.7180     0.3950     0.7860 cd         1 6RV      -0.151000
     24 C24          4.9150    -0.6510    -0.1460 cd         1 6RV       0.135300
     25 N25          4.0790    -0.5690    -1.1730 nc         1 6RV      -0.440800
     26 C26          5.9430    -1.7680    -0.0470 c3         1 6RV       0.295700
     27 F27          6.8010    -1.7580    -1.0940 f          1 6RV      -0.105667
     28 F28          6.6940    -1.6720     1.0750 f          1 6RV      -0.105667
     29 F29          5.3600    -2.9890    -0.0240 f          1 6RV      -0.105667
     30 Cl3          3.0210     2.6010     1.0190 cl         1 6RV      -0.118000
     31 H1           0.4820     2.9800    -0.9490 ha         1 6RV       0.224000
     32 H3          -3.9430     1.5210     1.5740 hc         1 6RV       0.130700
     33 H4          -5.6360    -0.0570    -0.5520 hc         1 6RV       0.095700
     34 H5          -6.2800     1.0460     0.7560 hc         1 6RV       0.095700
     35 H6          -4.2770     1.7830    -1.5200 hc         1 6RV       0.109700
     36 H7           2.3170     0.4000    -2.7140 h1         1 6RV       0.096700
     37 H8           2.4580     2.0400    -2.0720 h1         1 6RV       0.096700
     38 H9           5.2700     0.5560     1.7060 ha         1 6RV       0.171000
@<TRIPOS>BOND
     1     1     6 2   
     2     1     9 1   
     3     1    11 1   
     4     2     7 1   
     5     2     9 1   
     6     2    10 2   
     7     3     5 1   
     8     3    12 1   
     9     3    13 1   
    10     3    14 1   
    11     4     5 2   
    12     4     9 1   
    13     4    15 1   
    14     5    11 1   
    15     6     8 1   
    16     7     8 2   
    17     7    31 1   
    18     8    20 1   
    19    15    16 1   
    20    15    17 1   
    21    15    32 1   
    22    16    17 1   
    23    16    33 1   
    24    16    34 1   
    25    17    18 1   
    26    17    35 1   
    27    18    19 3   
    28    20    21 1   
    29    20    36 1   
    30    20    37 1   
    31    21    22 1   
    32    21    25 1   
    33    22    23 2   
    34    22    30 1   
    35    23    24 1   
    36    23    38 1   
    37    24    25 2   
    38    24    26 1   
    39    26    27 1   
    40    26    28 1   
    41    26    29 1   
@<TRIPOS>SUBSTRUCTURE
     1 6RV         1 TEMP              0 ****  ****    0 ROOT
