@<TRIPOS>MOLECULE
6RV
   38    41     1     0     0
SMALL
abcg2


@<TRIPOS>ATOM
      1 C4          -0.5580    -0.1660    -0.1230 cc         1 6RV      -0.025000
      2 C6          -1.3130     2.1260    -0.3060 c          1 6RV       0.539000
      3 C11         -3.7080    -2.0550     1.1590 c3         1 6RV       0.402300
      4 C8          -2.8030     0.2000     0.3470 cc         1 6RV       0.048700
      5 C9          -2.6770    -1.1060     0.6480 cd         1 6RV      -0.395300
      6 N3           0.6510     0.0670    -0.5050 nd         1 6RV      -0.324600
      7 C1           0.0230     2.3550    -0.7600 cc         1 6RV      -0.370200
      8 C2           0.9280     1.3440    -0.8470 cd         1 6RV       0.179400
      9 N5          -1.5770     0.7460    -0.0540 n          1 6RV      -0.023800
     10 O7          -2.1650     2.9680    -0.1190 o          1 6RV      -0.494000
     11 S10         -1.0740    -1.7230     0.4010 ss         1 6RV       0.328000
     12 F12         -3.1060    -3.0450     1.8270 f          1 6RV      -0.100667
     13 F13         -4.5720    -1.4710     1.9840 f          1 6RV      -0.100667
     14 F14         -4.4070    -2.6260     0.1740 f          1 6RV      -0.100667
     15 C15         -4.0440     1.0010     0.3930 cx         1 6RV      -0.064400
     16 C16         -5.3350     0.4860    -0.1490 cx         1 6RV      -0.087400
     17 C17         -4.5950     1.5600    -0.8930 cx         1 6RV      -0.048600
     18 C18         -5.0800     2.9070    -0.8920 c1         1 6RV       0.331900
     19 N19         -5.4870     3.9840    -0.9000 n1         1 6RV      -0.437000
     20 C20          2.3210     1.5910    -1.3570 c3         1 6RV       0.128800
     21 N21          3.2930     0.7930    -0.6520 na         1 6RV       0.155800
     22 C22          3.7090     0.9480     0.6220 cc         1 6RV       0.033000
     23 C23          4.5720    -0.0750     0.9140 cd         1 6RV      -0.151000
     24 C24          4.5950    -0.8090    -0.2800 cd         1 6RV       0.135300
     25 N25          3.8210    -0.2850    -1.2080 nc         1 6RV      -0.440800
     26 C26          5.3420    -2.0660    -0.5420 c3         1 6RV       0.295700
     27 F27          5.4600    -2.3120    -1.8460 f          1 6RV      -0.105667
     28 F28          6.5730    -2.0130    -0.0200 f          1 6RV      -0.105667
     29 F29          4.7360    -3.1260     0.0110 f          1 6RV      -0.105667
     30 CL3          3.1770     2.2400     1.5810 cl         1 6RV      -0.118000
     31 H1           0.2960     3.3730    -0.9980 ha         1 6RV       0.224000
     32 H3          -4.1220     1.6560     1.2540 hc         1 6RV       0.130700
     33 H4          -5.3740    -0.4710    -0.6480 hc         1 6RV       0.095700
     34 H5          -6.2330     0.7580     0.3880 hc         1 6RV       0.095700
     35 H6          -4.1130     1.2680    -1.8180 hc         1 6RV       0.109700
     36 H7           2.3820     1.3080    -2.4080 h1         1 6RV       0.096700
     37 H8           2.5830     2.6470    -1.2860 h1         1 6RV       0.096700
     38 H9           5.0980    -0.2530     1.8360 ha         1 6RV       0.171000
@<TRIPOS>BOND
     1     1     6 2   
     2     1     9 1   
     3     1    11 1   
     4     2     7 1   
     5     2     9 1   
     6     2    10 2   
     7     3     5 1   
     8     3    12 1   
     9     3    13 1   
    10     3    14 1   
    11     4     5 2   
    12     4     9 1   
    13     4    15 1   
    14     5    11 1   
    15     6     8 1   
    16     7     8 2   
    17     7    31 1   
    18     8    20 1   
    19    15    16 1   
    20    15    17 1   
    21    15    32 1   
    22    16    17 1   
    23    16    33 1   
    24    16    34 1   
    25    17    18 1   
    26    17    35 1   
    27    18    19 3   
    28    20    21 1   
    29    20    36 1   
    30    20    37 1   
    31    21    22 1   
    32    21    25 1   
    33    22    23 2   
    34    22    30 1   
    35    23    24 1   
    36    23    38 1   
    37    24    25 2   
    38    24    26 1   
    39    26    27 1   
    40    26    28 1   
    41    26    29 1   
@<TRIPOS>SUBSTRUCTURE
     1 6RV         1 TEMP              0 ****  ****    0 ROOT
