@<TRIPOS>MOLECULE
6RW
   35    36     1     0     0
SMALL
abcg2


@<TRIPOS>ATOM
      1 C10        -30.6710    -9.7990     1.2200 c5         1 6RW      -0.110400
      2 C11        -30.9020   -11.2850     1.5800 c5         1 6RW      -0.078400
      3 C12        -30.9420   -12.0590     0.2320 c5         1 6RW      -0.047400
      4 C13        -30.8080   -10.9550    -0.8310 c5         1 6RW      -0.305700
      5 C02        -26.3390    -9.6610     0.6550 ca         1 6RW       0.299300
      6 C03        -27.6450    -9.2240     0.3150 ca         1 6RW       0.248000
      7 C04        -27.9070    -7.8540     0.3760 ca         1 6RW      -0.135000
      8 C05        -26.8900    -6.9820     0.7430 ca         1 6RW      -0.127000
      9 C06        -25.6430    -7.4950     1.0530 ca         1 6RW       0.300900
     10 N07        -25.3800    -8.8080     1.0110 nb         1 6RW      -0.646000
     11 N08        -28.5810   -10.1590    -0.1010 nu         1 6RW      -0.950200
     12 C09        -29.9980    -9.8330    -0.1640 c5         1 6RW       0.244500
     13 S14        -30.3240   -11.4710    -2.4820 s6         1 6RW       1.117000
     14 O15        -30.1240   -10.2690    -3.2780 o          1 6RW      -0.524000
     15 O16        -31.3330   -12.4160    -2.9380 o          1 6RW      -0.524000
     16 C17        -28.7800   -12.3440    -2.3970 c3         1 6RW      -0.336100
     17 H1         -31.6220    -9.2700     1.1420 hc         1 6RW       0.058200
     18 H2         -30.0550    -9.2750     1.9500 hc         1 6RW       0.058200
     19 H4         -30.0900   -11.6610     2.2010 hc         1 6RW       0.049700
     20 H5         -31.8260   -11.4150     2.1420 hc         1 6RW       0.049700
     21 H6         -30.1150   -12.7670     0.1740 hc         1 6RW       0.053700
     22 H7         -31.8610   -12.6230     0.0940 hc         1 6RW       0.053700
     23 H8         -31.7970   -10.5440    -1.0500 h1         1 6RW       0.112700
     24 H9         -24.9540   -11.2600     0.9040 hc         1 6RW       0.048700
     25 H10        -26.6220   -11.7020     1.3020 hc         1 6RW       0.048700
     26 H11        -26.1420   -11.5380    -0.3830 hc         1 6RW       0.048700
     27 H12        -28.8880    -7.4660     0.1460 ha         1 6RW       0.121000
     28 H13        -27.0740    -5.9160     0.7930 ha         1 6RW       0.123000
     29 H14        -24.8270    -6.8450     1.3480 h4         1 6RW       0.022100
     30 H15        -28.3880   -11.0910     0.2330 hn         1 6RW       0.459000
     31 H16        -30.1160    -8.9030    -0.7140 h1         1 6RW       0.091700
     32 H18        -28.6150   -12.7160    -3.4080 h1         1 6RW       0.106367
     33 H19        -27.9970   -11.6540    -2.0980 h1         1 6RW       0.106367
     34 H20        -28.8690   -13.1750    -1.7010 h1         1 6RW       0.106367
     35 C01        -25.9940   -11.1210     0.6170 c3         1 6RW      -0.143400
@<TRIPOS>BOND
     1     1     2 1   
     2     1    12 1   
     3     1    17 1   
     4     1    18 1   
     5     2     3 1   
     6     2    19 1   
     7     2    20 1   
     8     3     4 1   
     9     3    21 1   
    10     3    22 1   
    11     4    12 1   
    12     4    13 1   
    13     4    23 1   
    14     5     6 ar  
    15     5    10 ar  
    16     5    35 1   
    17     6     7 ar  
    18     6    11 1   
    19     7     8 ar  
    20     7    27 1   
    21     8     9 ar  
    22     8    28 1   
    23     9    10 ar  
    24     9    29 1   
    25    11    12 1   
    26    11    30 1   
    27    12    31 1   
    28    13    14 2   
    29    13    15 2   
    30    13    16 1   
    31    16    32 1   
    32    16    33 1   
    33    16    34 1   
    34    24    35 1   
    35    25    35 1   
    36    26    35 1   
@<TRIPOS>SUBSTRUCTURE
     1 6RW         1 TEMP              0 ****  ****    0 ROOT
