@<TRIPOS>MOLECULE
6RW
   35    36     1     0     0
SMALL
No Charge or Current Charge


@<TRIPOS>ATOM
      1 C10        -30.3310   -10.3400     1.5400 c5         1 6RW      -0.110400
      2 C11        -30.5410   -11.9020     1.5110 c5         1 6RW      -0.078400
      3 C12        -30.6700   -12.2960     0.0010 c5         1 6RW      -0.047400
      4 C13        -30.8880   -10.9070    -0.6730 c5         1 6RW      -0.305700
      5 C02        -26.6000    -9.5140     1.1580 ca         1 6RW       0.299300
      6 C03        -27.6180    -9.3960     0.1590 ca         1 6RW       0.248000
      7 C04        -27.6230    -8.2310    -0.6310 ca         1 6RW      -0.135000
      8 C05        -26.6600    -7.2370    -0.3830 ca         1 6RW      -0.127000
      9 C06        -25.7110    -7.4330     0.6350 ca         1 6RW       0.300900
     10 N07        -25.6700    -8.5510     1.3950 nb         1 6RW      -0.646000
     11 N08        -28.5680   -10.4150    -0.0830 nu         1 6RW      -0.950200
     12 C09        -29.9610    -9.9330     0.0850 c5         1 6RW       0.244500
     13 S14        -30.5850   -10.9080    -2.5290 s6         1 6RW       1.117000
     14 O15        -30.5110    -9.5130    -2.9870 o          1 6RW      -0.524000
     15 O16        -31.5990   -11.7780    -3.1400 o          1 6RW      -0.524000
     16 C17        -29.0000   -11.6620    -2.9160 c3         1 6RW      -0.336100
     17 H1         -31.2640    -9.8450     1.8320 hc         1 6RW       0.058200
     18 H2         -29.5840   -10.0260     2.2780 hc         1 6RW       0.058200
     19 H4         -29.7020   -12.4280     1.9800 hc         1 6RW       0.049700
     20 H5         -31.4380   -12.1830     2.0750 hc         1 6RW       0.049700
     21 H6         -29.7640   -12.8060    -0.3450 hc         1 6RW       0.053700
     22 H7         -31.5070   -12.9810    -0.1800 hc         1 6RW       0.053700
     23 H8         -31.9300   -10.5850    -0.5690 h1         1 6RW       0.112700
     24 H9         -25.6010   -10.7240     2.6810 hc         1 6RW       0.048700
     25 H10        -27.3620   -10.8680     2.6770 hc         1 6RW       0.048700
     26 H11        -26.4020   -11.6620     1.4160 hc         1 6RW       0.048700
     27 H12        -28.3520    -8.1020    -1.4270 ha         1 6RW       0.121000
     28 H13        -26.6400    -6.3240    -0.9740 ha         1 6RW       0.123000
     29 H14        -24.9560    -6.6760     0.8430 h4         1 6RW       0.022100
     30 H15        -28.3380   -11.3000     0.3650 hn         1 6RW       0.459000
     31 H16        -30.1410    -8.8720    -0.1510 h1         1 6RW       0.091700
     32 H18        -28.9370   -11.7370    -4.0050 h1         1 6RW       0.106367
     33 H19        -28.2110   -11.0110    -2.5290 h1         1 6RW       0.106367
     34 H20        -28.9700   -12.6520    -2.4530 h1         1 6RW       0.106367
     35 C01        -26.4840   -10.7580     2.0320 c3         1 6RW      -0.143400
@<TRIPOS>BOND
     1     1     2 1   
     2     1    12 1   
     3     1    17 1   
     4     1    18 1   
     5     2     3 1   
     6     2    19 1   
     7     2    20 1   
     8     3     4 1   
     9     3    21 1   
    10     3    22 1   
    11     4    12 1   
    12     4    13 1   
    13     4    23 1   
    14     5     6 ar  
    15     5    10 ar  
    16     5    35 1   
    17     6     7 ar  
    18     6    11 1   
    19     7     8 ar  
    20     7    27 1   
    21     8     9 ar  
    22     8    28 1   
    23     9    10 ar  
    24     9    29 1   
    25    11    12 1   
    26    11    30 1   
    27    12    31 1   
    28    13    14 2   
    29    13    15 2   
    30    13    16 1   
    31    16    32 1   
    32    16    33 1   
    33    16    34 1   
    34    24    35 1   
    35    25    35 1   
    36    26    35 1   
@<TRIPOS>SUBSTRUCTURE
     1 6RW         1 TEMP              0 ****  ****    0 ROOT
