@<TRIPOS>MOLECULE
6RX
   42    45     1     0     0
SMALL
abcg2


@<TRIPOS>ATOM
      1 C10         -3.2810    -1.4210    -0.3800 c          1 6RX       0.627000
      2 C13         -3.7410     0.0680     2.5260 c3         1 6RX      -0.119100
      3 C21          0.6550     1.7090    -0.3940 ce         1 6RX      -0.260400
      4 C22          1.7010     2.7090    -0.4730 c          1 6RX       0.674300
      5 C24          2.7460    -1.0850    -0.9430 ca         1 6RX      -0.084000
      6 C02          3.5910    -2.1380     1.0670 ca         1 6RX      -0.070300
      7 C03          2.5150    -1.5870     1.7620 ca         1 6RX      -0.113000
      8 C04          1.5720    -0.8040     1.1160 ca         1 6RX      -0.084000
      9 C05          1.6750    -0.5440    -0.2470 ca         1 6RX      -0.086300
     10 C06          0.6460     0.3260    -0.9460 c6         1 6RX       0.159000
     11 C07         -0.7570    -0.2210    -0.7750 cc         1 6RX      -0.331400
     12 C08         -1.0600    -1.4530    -1.4400 c          1 6RX       0.604200
     13 N09         -2.3210    -1.9610    -1.1810 ns         1 6RX      -0.464500
     14 N11         -2.9640    -0.1960     0.1800 n          1 6RX      -0.334000
     15 C12         -3.9690     0.4080     1.0640 c3         1 6RX       0.094000
     16 O14         -4.3430    -1.9730    -0.1820 o          1 6RX      -0.553000
     17 O15         -0.3000    -2.0520    -2.1830 o          1 6RX      -0.520000
     18 C16         -1.7230     0.3670    -0.0070 cd         1 6RX       0.336600
     19 N17         -1.4960     1.5740     0.6070 nu         1 6RX      -0.678000
     20 C18         -0.3360     2.2230     0.3390 c2         1 6RX       0.088800
     21 C19          0.0170     3.5990     0.7860 c5         1 6RX       0.191800
     22 O20          1.3060     3.8020     0.2270 os         1 6RX      -0.423100
     23 O23          2.7650     2.6760    -1.0340 o          1 6RX      -0.464000
     24 C25          3.6920    -1.8700    -0.2960 ca         1 6RX      -0.113000
     25 H132        -3.7970    -1.0080     2.6860 hc         1 6RX       0.052367
     26 H131        -2.7740     0.4160     2.8890 hc         1 6RX       0.052367
     27 H133        -4.5130     0.5390     3.1330 hc         1 6RX       0.052367
     28 H241         2.8480    -0.8910    -2.0050 ha         1 6RX       0.110500
     29 H012         4.2470    -4.0480     1.8040 hc         1 6RX       0.041367
     30 H011         5.5530    -3.0120     1.2490 hc         1 6RX       0.041367
     31 H013         4.7590    -2.6900     2.7910 hc         1 6RX       0.041367
     32 H031         2.4130    -1.7740     2.8250 ha         1 6RX       0.109500
     33 H041         0.7480    -0.3910     1.6870 ha         1 6RX       0.110500
     34 H061         0.8960     0.3480    -2.0120 hc         1 6RX       0.088700
     35 H091        -2.5560    -2.8490    -1.6060 hn         1 6RX       0.349500
     36 H121        -4.9390     0.0460     0.7390 h1         1 6RX       0.068200
     37 H122        -3.9950     1.4840     0.8930 h1         1 6RX       0.068200
     38 H171        -2.2010     2.0330     1.1580 hn         1 6RX       0.517000
     39 H191        -0.6780     4.3500     0.4060 h1         1 6RX       0.078700
     40 H192         0.0640     3.6850     1.8740 h1         1 6RX       0.078700
     41 H251         4.5190    -2.2810    -0.8620 ha         1 6RX       0.109500
     42 C01          4.5920    -3.0130     1.7640 c3         1 6RX      -0.046800
@<TRIPOS>BOND
     1     1    13 1   
     2     1    14 1   
     3     1    16 2   
     4     2    15 1   
     5     2    25 1   
     6     2    26 1   
     7     2    27 1   
     8     3     4 1   
     9     3    10 1   
    10     3    20 2   
    11     4    22 1   
    12     4    23 2   
    13     5     9 ar  
    14     5    24 ar  
    15     5    28 1   
    16     6     7 ar  
    17     6    24 ar  
    18     6    42 1   
    19     7     8 ar  
    20     7    32 1   
    21     8     9 ar  
    22     8    33 1   
    23     9    10 1   
    24    10    11 1   
    25    10    34 1   
    26    11    12 1   
    27    11    18 2   
    28    12    13 1   
    29    12    17 2   
    30    13    35 1   
    31    14    15 1   
    32    14    18 1   
    33    15    36 1   
    34    15    37 1   
    35    18    19 1   
    36    19    20 1   
    37    19    38 1   
    38    20    21 1   
    39    21    22 1   
    40    21    39 1   
    41    21    40 1   
    42    24    41 1   
    43    29    42 1   
    44    30    42 1   
    45    31    42 1   
@<TRIPOS>SUBSTRUCTURE
     1 6RX         1 TEMP              0 ****  ****    0 ROOT
