@<TRIPOS>MOLECULE
6RX
   42    45     1     0     0
SMALL
No Charge or Current Charge


@<TRIPOS>ATOM
      1 C10         -3.2920    -1.4630    -0.4050 c          1 6RX       0.627000
      2 C13         -3.8950     0.1440     2.5500 c3         1 6RX      -0.119100
      3 C21          0.6620     1.7380    -0.3200 ce         1 6RX      -0.260400
      4 C22          1.7620     2.6940    -0.4680 c          1 6RX       0.674300
      5 C24          2.7690    -1.0640    -0.9690 ca         1 6RX      -0.084000
      6 C02          3.6330    -2.1500     1.0390 ca         1 6RX      -0.070300
      7 C03          2.5490    -1.6310     1.7730 ca         1 6RX      -0.113000
      8 C04          1.5820    -0.8320     1.1400 ca         1 6RX      -0.084000
      9 C05          1.6840    -0.5440    -0.2360 ca         1 6RX      -0.086300
     10 C06          0.6280     0.3320    -0.9210 c6         1 6RX       0.159000
     11 C07         -0.7740    -0.2550    -0.7370 cc         1 6RX      -0.331400
     12 C08         -1.0640    -1.5250    -1.4090 c          1 6RX       0.604200
     13 N09         -2.3080    -2.0040    -1.1670 ns         1 6RX      -0.464500
     14 N11         -3.0040    -0.2310     0.2150 n          1 6RX      -0.334000
     15 C12         -4.0690     0.4060     1.0410 c3         1 6RX       0.094000
     16 O14         -4.3580    -2.0440    -0.2870 o          1 6RX      -0.553000
     17 O15         -0.2890    -2.1260    -2.1330 o          1 6RX      -0.520000
     18 C16         -1.7500     0.3410     0.0320 cd         1 6RX       0.336600
     19 N17         -1.4850     1.5530     0.6100 nu         1 6RX      -0.678000
     20 C18         -0.3150     2.2570     0.3940 c2         1 6RX       0.088800
     21 C19          0.0730     3.6670     0.8030 c5         1 6RX       0.191800
     22 O20          1.4040     3.8380     0.2090 os         1 6RX      -0.423100
     23 O23          2.8080     2.5310    -1.0780 o          1 6RX      -0.464000
     24 C25          3.7360    -1.8630    -0.3340 ca         1 6RX      -0.113000
     25 H132        -3.9370    -0.9320     2.7580 hc         1 6RX       0.052367
     26 H131        -2.9330     0.5260     2.9120 hc         1 6RX       0.052367
     27 H133        -4.6950     0.6340     3.1160 hc         1 6RX       0.052367
     28 H241         2.8650    -0.8510    -2.0310 ha         1 6RX       0.110500
     29 H012         4.3950    -4.0750     1.6810 hc         1 6RX       0.041367
     30 H011         5.6590    -2.9130     1.2460 hc         1 6RX       0.041367
     31 H013         4.7960    -2.7440     2.7790 hc         1 6RX       0.041367
     32 H031         2.4550    -1.8470     2.8340 ha         1 6RX       0.109500
     33 H041         0.7510    -0.4360     1.7190 ha         1 6RX       0.110500
     34 H061         0.8560     0.4150    -1.9940 hc         1 6RX       0.088700
     35 H091        -2.5330    -2.8800    -1.6110 hn         1 6RX       0.349500
     36 H121        -5.0560     0.0380     0.7340 h1         1 6RX       0.068200
     37 H122        -4.0870     1.4870     0.8520 h1         1 6RX       0.068200
     38 H171        -2.2240     1.9760     1.1690 hn         1 6RX       0.517000
     39 H191        -0.6110     4.4240     0.3990 h1         1 6RX       0.078700
     40 H192         0.1390     3.7840     1.8930 h1         1 6RX       0.078700
     41 H251         4.5670    -2.2600    -0.9130 ha         1 6RX       0.109500
     42 C01          4.6780    -3.0170     1.7240 c3         1 6RX      -0.046800
@<TRIPOS>BOND
     1     1    13 1   
     2     1    14 1   
     3     1    16 2   
     4     2    15 1   
     5     2    25 1   
     6     2    26 1   
     7     2    27 1   
     8     3     4 1   
     9     3    10 1   
    10     3    20 2   
    11     4    22 1   
    12     4    23 2   
    13     5     9 ar  
    14     5    24 ar  
    15     5    28 1   
    16     6     7 ar  
    17     6    24 ar  
    18     6    42 1   
    19     7     8 ar  
    20     7    32 1   
    21     8     9 ar  
    22     8    33 1   
    23     9    10 1   
    24    10    11 1   
    25    10    34 1   
    26    11    12 1   
    27    11    18 2   
    28    12    13 1   
    29    12    17 2   
    30    13    35 1   
    31    14    15 1   
    32    14    18 1   
    33    15    36 1   
    34    15    37 1   
    35    18    19 1   
    36    19    20 1   
    37    19    38 1   
    38    20    21 1   
    39    21    22 1   
    40    21    39 1   
    41    21    40 1   
    42    24    41 1   
    43    29    42 1   
    44    30    42 1   
    45    31    42 1   
@<TRIPOS>SUBSTRUCTURE
     1 6RX         1 TEMP              0 ****  ****    0 ROOT
