@<TRIPOS>MOLECULE
6RY
   38    40     1     0     0
SMALL
No Charge or Current Charge


@<TRIPOS>ATOM
      1 C01         -1.1020    -0.7790    -2.2790 c3         1 6RY      -0.122100
      2 C02         -0.6540    -0.7700    -0.8030 c3         1 6RY       0.275800
      3 N03         -1.5730     0.0410     0.0030 nu         1 6RY      -0.948200
      4 C04         -2.9580    -0.1670     0.1920 ca         1 6RY       0.276000
      5 C05         -3.8650     0.9110     0.4490 ca         1 6RY       0.288300
      6 C06         -3.3800     2.3550     0.5200 c3         1 6RY      -0.143400
      7 N07         -5.2010     0.7380     0.6400 nb         1 6RY      -0.645000
      8 C08         -5.6860    -0.5230     0.5850 ca         1 6RY       0.285900
      9 C09         -4.8740    -1.6450     0.3440 ca         1 6RY      -0.123000
     10 C10         -3.4910    -1.4700     0.1470 ca         1 6RY      -0.160000
     11 C11          0.7670    -0.2350    -0.6260 ca         1 6RY      -0.091300
     12 C12          1.7280    -1.0120     0.0560 ca         1 6RY      -0.090000
     13 C13          3.0390    -0.5360     0.2250 ca         1 6RY       0.057100
     14 C14          3.3960     0.7440    -0.2670 ca         1 6RY       0.062100
     15 O15          4.6710     1.2410    -0.0810 os         1 6RY      -0.329100
     16 C16          5.5100     0.5750     0.8880 c6         1 6RY       0.117600
     17 C17          5.3590    -0.9560     0.7500 c6         1 6RY       0.117600
     18 O18          3.9670    -1.3250     0.8750 os         1 6RY      -0.328100
     19 C19          2.4470     1.5190    -0.9500 ca         1 6RY      -0.108000
     20 C20          1.1390     1.0340    -1.1280 ca         1 6RY      -0.106000
     21 H1          -0.3820    -1.3370    -2.8890 hc         1 6RY       0.044700
     22 H2          -2.0790    -1.2640    -2.3870 hc         1 6RY       0.044700
     23 H3          -1.1790     0.2370    -2.6820 hc         1 6RY       0.044700
     24 H4          -0.6720    -1.8090    -0.4430 h1         1 6RY       0.063700
     25 H5          -1.2470     0.9870     0.2030 hn         1 6RY       0.475000
     26 H6          -2.8800     2.6450    -0.4110 hc         1 6RY       0.047367
     27 H7          -4.2050     3.0590     0.6840 hc         1 6RY       0.047367
     28 H8          -2.6670     2.4860     1.3430 hc         1 6RY       0.047367
     29 H9          -6.7590    -0.6380     0.7420 h4         1 6RY       0.018100
     30 H10         -5.3160    -2.6380     0.3150 ha         1 6RY       0.118000
     31 H11         -2.8560    -2.3310    -0.0320 ha         1 6RY       0.116000
     32 H12          1.4640    -1.9900     0.4480 ha         1 6RY       0.130000
     33 H13          6.5550     0.8770     0.7360 h1         1 6RY       0.068700
     34 H14          5.2040     0.8830     1.8980 h1         1 6RY       0.068700
     35 H15          5.7250    -1.2730    -0.2360 h1         1 6RY       0.068200
     36 H16          5.9450    -1.4760     1.5200 h1         1 6RY       0.068200
     37 H17          2.7220     2.4990    -1.3330 ha         1 6RY       0.129000
     38 H18          0.4120     1.6510    -1.6510 ha         1 6RY       0.115000
@<TRIPOS>BOND
     1     1     2 1   
     2     1    21 1   
     3     1    22 1   
     4     1    23 1   
     5     2     3 1   
     6     2    11 1   
     7     2    24 1   
     8     3     4 1   
     9     3    25 1   
    10     4     5 ar  
    11     4    10 ar  
    12     5     6 1   
    13     5     7 ar  
    14     6    26 1   
    15     6    27 1   
    16     6    28 1   
    17     7     8 ar  
    18     8     9 ar  
    19     8    29 1   
    20     9    10 ar  
    21     9    30 1   
    22    10    31 1   
    23    11    12 ar  
    24    11    20 ar  
    25    12    13 ar  
    26    12    32 1   
    27    13    14 ar  
    28    13    18 1   
    29    14    15 1   
    30    14    19 ar  
    31    15    16 1   
    32    16    17 1   
    33    16    33 1   
    34    16    34 1   
    35    17    18 1   
    36    17    35 1   
    37    17    36 1   
    38    19    20 ar  
    39    19    37 1   
    40    20    38 1   
@<TRIPOS>SUBSTRUCTURE
     1 6RY         1 TEMP              0 ****  ****    0 ROOT
