@<TRIPOS>MOLECULE
6RY
   38    40     1     0     0
SMALL
bcc


@<TRIPOS>ATOM
      1 C01         -1.0470    -0.8210    -2.3700 c3         1 6RY      -0.122100
      2 C02         -0.6800    -0.6750    -0.8930 c3         1 6RY       0.275800
      3 N03         -1.5750     0.2110    -0.1650 nu         1 6RY      -0.754600
      4 C04         -2.8820    -0.1080     0.1020 ca         1 6RY       0.072300
      5 C05         -3.7680     0.8920     0.5730 ca         1 6RY       0.353600
      6 C06         -3.2940     2.3050     0.7340 c3         1 6RY      -0.143400
      7 N07         -5.0240     0.6280     0.8930 nb         1 6RY      -0.645000
      8 C08         -5.4950    -0.6110     0.7780 ca         1 6RY       0.351200
      9 C09         -4.7090    -1.6550     0.3290 ca         1 6RY      -0.206300
     10 C10         -3.3910    -1.4030    -0.0180 ca         1 6RY      -0.178000
     11 C11          0.7390    -0.1900    -0.7050 ca         1 6RY      -0.091300
     12 C12          1.6250    -0.9160     0.0790 ca         1 6RY      -0.108000
     13 C13          2.9320    -0.4870     0.2750 ca         1 6RY       0.057100
     14 C14          3.3650     0.7050    -0.3130 ca         1 6RY       0.062100
     15 O15          4.6250     1.1720    -0.1410 os         1 6RY      -0.305900
     16 C16          5.3300     0.5630     0.9310 c6         1 6RY       0.094400
     17 C17          5.1300    -0.9330     0.9030 c6         1 6RY       0.094400
     18 O18          3.7520    -1.2480     1.0370 os         1 6RY      -0.304900
     19 C19          2.4820     1.4330    -1.0990 ca         1 6RY      -0.126000
     20 C20          1.1870     0.9870    -1.3020 ca         1 6RY      -0.124000
     21 H1          -0.3850    -1.5360    -2.8580 hc         1 6RY       0.044700
     22 H2          -2.0710    -1.1790    -2.4870 hc         1 6RY       0.044700
     23 H3          -0.9670     0.1290    -2.9000 hc         1 6RY       0.044700
     24 H4          -0.7470    -1.6620    -0.4300 h1         1 6RY       0.063700
     25 H5          -1.3840     1.1920    -0.2960 hn         1 6RY       0.419800
     26 H6          -3.0000     2.7490    -0.2220 hc         1 6RY       0.047367
     27 H7          -4.0870     2.9190     1.1530 hc         1 6RY       0.047367
     28 H8          -2.4260     2.3690     1.3950 hc         1 6RY       0.047367
     29 H9          -6.5310    -0.7690     1.0550 h4         1 6RY       0.018100
     30 H10         -5.1150    -2.6540     0.2440 ha         1 6RY       0.136000
     31 H11         -2.7740    -2.2170    -0.3760 ha         1 6RY       0.134000
     32 H12          1.3090    -1.8420     0.5470 ha         1 6RY       0.148000
     33 H13          6.3830     0.8080     0.8030 h1         1 6RY       0.068700
     34 H14          4.9920     0.9770     1.8870 h1         1 6RY       0.068700
     35 H15          5.5230    -1.3530    -0.0290 h1         1 6RY       0.068200
     36 H16          5.6500    -1.4010     1.7380 h1         1 6RY       0.068200
     37 H17          2.8220     2.3550    -1.5550 ha         1 6RY       0.147000
     38 H18          0.5280     1.5740    -1.9310 ha         1 6RY       0.133000
@<TRIPOS>BOND
     1     1     2 1   
     2     1    21 1   
     3     1    22 1   
     4     1    23 1   
     5     2     3 1   
     6     2    11 1   
     7     2    24 1   
     8     3     4 1   
     9     3    25 1   
    10     4     5 ar  
    11     4    10 ar  
    12     5     6 1   
    13     5     7 ar  
    14     6    26 1   
    15     6    27 1   
    16     6    28 1   
    17     7     8 ar  
    18     8     9 ar  
    19     8    29 1   
    20     9    10 ar  
    21     9    30 1   
    22    10    31 1   
    23    11    12 ar  
    24    11    20 ar  
    25    12    13 ar  
    26    12    32 1   
    27    13    14 ar  
    28    13    18 1   
    29    14    15 1   
    30    14    19 ar  
    31    15    16 1   
    32    16    17 1   
    33    16    33 1   
    34    16    34 1   
    35    17    18 1   
    36    17    35 1   
    37    17    36 1   
    38    19    20 ar  
    39    19    37 1   
    40    20    38 1   
@<TRIPOS>SUBSTRUCTURE
     1 6RY         1 TEMP              0 ****  ****    0 ROOT
