@<TRIPOS>MOLECULE
6RZ
   31    31     1     0     0
SMALL
No Charge or Current Charge


@<TRIPOS>ATOM
      1 C13        -25.1150    -7.3280     0.8180 ca         1 6RZ       0.292900
      2 C15        -27.4770    -7.8950     0.8380 ca         1 6RZ      -0.159000
      3 C01        -30.2570   -11.3960     0.7280 c3         1 6RZ      -0.110100
      4 N08        -28.1150   -10.2590     0.7260 nu         1 6RZ      -0.952200
      5 C09        -27.1180    -9.2550     0.7570 ca         1 6RZ       0.266000
      6 C02        -29.5060   -10.1200     0.3020 c3         1 6RZ       0.270500
      7 C03        -29.4840    -9.8780    -1.2140 c3         1 6RZ      -0.353400
      8 S04        -31.0090    -9.2070    -1.9000 s6         1 6RZ       1.109000
      9 O06        -30.7500    -8.8800    -3.3070 o          1 6RZ      -0.522500
     10 O07        -32.1170   -10.1090    -1.5690 o          1 6RZ      -0.522500
     11 C10        -25.7210    -9.5670     0.7150 ca         1 6RZ       0.294300
     12 C11        -25.2330   -11.0080     0.6280 c3         1 6RZ      -0.144400
     13 N12        -24.7400    -8.6250     0.7440 nb         1 6RZ      -0.641000
     14 C14        -26.4600    -6.9230     0.8670 ca         1 6RZ      -0.123000
     15 H1         -24.3120    -6.5910     0.8400 h4         1 6RZ       0.022100
     16 H2         -28.5170    -7.5860     0.8830 ha         1 6RZ       0.108000
     17 H4         -31.3330   -11.3060     0.5460 hc         1 6RZ       0.058367
     18 H5         -29.8870   -12.2730     0.1830 hc         1 6RZ       0.058367
     19 H6         -31.5130    -7.8910     0.0120 h1         1 6RZ       0.104700
     20 H7         -30.3630    -7.0670    -1.1160 h1         1 6RZ       0.104700
     21 H8         -32.1210    -7.1580    -1.5170 h1         1 6RZ       0.104700
     22 H9         -27.7610   -11.2160     0.7610 hn         1 6RZ       0.475000
     23 H10        -29.9610    -9.2670     0.8250 h1         1 6RZ       0.058700
     24 H11        -29.2760   -10.8060    -1.7550 h1         1 6RZ       0.106700
     25 H12        -28.7200    -9.1390    -1.4720 h1         1 6RZ       0.106700
     26 H13        -24.1390   -11.0710     0.5790 hc         1 6RZ       0.050033
     27 H14        -25.5560   -11.5820     1.5040 hc         1 6RZ       0.050033
     28 H15        -25.6310   -11.5010    -0.2660 hc         1 6RZ       0.050033
     29 H16        -26.7050    -5.8660     0.9300 ha         1 6RZ       0.120000
     30 H3         -30.1250   -11.5770     1.8010 hc         1 6RZ       0.058367
     31 C05        -31.2780    -7.6620    -1.0320 c3         1 6RZ      -0.341100
@<TRIPOS>BOND
     1     1    13 ar  
     2     1    14 ar  
     3     1    15 1   
     4     2     5 ar  
     5     2    14 ar  
     6     2    16 1   
     7     3     6 1   
     8     3    17 1   
     9     3    18 1   
    10     3    30 1   
    11     4     5 1   
    12     4     6 1   
    13     4    22 1   
    14     5    11 ar  
    15     6     7 1   
    16     6    23 1   
    17     7     8 1   
    18     7    24 1   
    19     7    25 1   
    20     8     9 2   
    21     8    10 2   
    22     8    31 1   
    23    11    12 1   
    24    11    13 ar  
    25    12    26 1   
    26    12    27 1   
    27    12    28 1   
    28    14    29 1   
    29    19    31 1   
    30    20    31 1   
    31    21    31 1   
@<TRIPOS>SUBSTRUCTURE
     1 6RZ         1 TEMP              0 ****  ****    0 ROOT
