@<TRIPOS>MOLECULE
6RZ
   31    31     1     0     0
SMALL
abcg2


@<TRIPOS>ATOM
      1 C13        -25.2400    -7.3180     0.9060 ca         1 6RZ       0.292900
      2 C15        -27.5390    -7.9600     0.7810 ca         1 6RZ      -0.159000
      3 C01        -30.1690   -11.4810     0.7050 c3         1 6RZ      -0.110100
      4 N08        -28.0320   -10.3490     0.6830 nu         1 6RZ      -0.952200
      5 C09        -27.1380    -9.2970     0.7200 ca         1 6RZ       0.266000
      6 C02        -29.4340   -10.2030     0.3230 c3         1 6RZ       0.270500
      7 C03        -29.5580    -9.8890    -1.1840 c3         1 6RZ      -0.353400
      8 S04        -31.1040    -9.1710    -1.7430 s6         1 6RZ       1.109000
      9 O06        -31.0580    -9.1350    -3.1960 o          1 6RZ      -0.522500
     10 O07        -32.2270    -9.8600    -1.1270 o          1 6RZ      -0.522500
     11 C10        -25.7440    -9.5660     0.7480 ca         1 6RZ       0.294300
     12 C11        -25.2470   -10.9800     0.6820 c3         1 6RZ      -0.144400
     13 N12        -24.8390    -8.5940     0.8400 nb         1 6RZ      -0.641000
     14 C14        -26.5780    -6.9630     0.8790 ca         1 6RZ      -0.123000
     15 H1         -24.4620    -6.5660     0.9790 h4         1 6RZ       0.022100
     16 H2         -28.5850    -7.6900     0.7630 ha         1 6RZ       0.108000
     17 H4         -31.2180   -11.4150     0.4260 hc         1 6RZ       0.058367
     18 H5         -29.7290   -12.3370     0.1870 hc         1 6RZ       0.058367
     19 H6         -31.0690    -7.5030    -0.0590 h1         1 6RZ       0.104700
     20 H7         -30.2020    -6.9960    -1.5480 h1         1 6RZ       0.104700
     21 H8         -31.9940    -7.0370    -1.5180 h1         1 6RZ       0.104700
     22 H9         -27.6400   -11.2400     0.4180 hn         1 6RZ       0.475000
     23 H10        -29.8460    -9.3770     0.9040 h1         1 6RZ       0.058700
     24 H11        -29.4530   -10.7980    -1.7790 h1         1 6RZ       0.106700
     25 H12        -28.7940    -9.1790    -1.5050 h1         1 6RZ       0.106700
     26 H13        -24.1600   -10.9890     0.7190 hc         1 6RZ       0.050033
     27 H14        -25.6310   -11.5770     1.5150 hc         1 6RZ       0.050033
     28 H15        -25.5670   -11.4740    -0.2410 hc         1 6RZ       0.050033
     29 H16        -26.8710    -5.9220     0.9310 ha         1 6RZ       0.120000
     30 H3         -30.0940   -11.6480     1.7790 hc         1 6RZ       0.058367
     31 C05        -31.0790    -7.4980    -1.1470 c3         1 6RZ      -0.341100
@<TRIPOS>BOND
     1     1    13 ar  
     2     1    14 ar  
     3     1    15 1   
     4     2     5 ar  
     5     2    14 ar  
     6     2    16 1   
     7     3     6 1   
     8     3    17 1   
     9     3    18 1   
    10     3    30 1   
    11     4     5 1   
    12     4     6 1   
    13     4    22 1   
    14     5    11 ar  
    15     6     7 1   
    16     6    23 1   
    17     7     8 1   
    18     7    24 1   
    19     7    25 1   
    20     8     9 2   
    21     8    10 2   
    22     8    31 1   
    23    11    12 1   
    24    11    13 ar  
    25    12    26 1   
    26    12    27 1   
    27    12    28 1   
    28    14    29 1   
    29    19    31 1   
    30    20    31 1   
    31    21    31 1   
@<TRIPOS>SUBSTRUCTURE
     1 6RZ         1 TEMP              0 ****  ****    0 ROOT
