@<TRIPOS>MOLECULE
6S0
   34    36     1     0     0
SMALL
bcc


@<TRIPOS>ATOM
      1 C01          0.9530    -0.7250     2.3690 c3         1 6S0      -0.123100
      2 C02          0.6200    -0.6240     0.8800 c3         1 6S0       0.274800
      3 N03          1.5380     0.2260     0.1400 nu         1 6S0      -0.753600
      4 C04          2.8450    -0.1300    -0.0940 ca         1 6S0       0.065300
      5 C05          3.7640     0.8410    -0.5600 ca         1 6S0       0.358600
      6 C06          3.3290     2.2640    -0.7470 c3         1 6S0      -0.145400
      7 N07          5.0190     0.5420    -0.8490 nb         1 6S0      -0.645000
      8 C08          5.4560    -0.7060    -0.7060 ca         1 6S0       0.356200
      9 C09          4.6370    -1.7230    -0.2570 ca         1 6S0      -0.208300
     10 C10          3.3180    -1.4340     0.0580 ca         1 6S0      -0.175000
     11 C11         -0.7900    -0.1350     0.6420 ca         1 6S0      -0.206600
     12 C12         -1.6570    -0.8390    -0.1730 ca         1 6S0      -0.037000
     13 C13         -2.9350    -0.3260    -0.3520 ca         1 6S0      -0.161400
     14 C14         -3.3020     0.8750     0.2810 ca         1 6S0       0.437100
     15 C15         -4.6540     1.2480    -0.0180 cc         1 6S0      -0.231800
     16 C16         -5.2550     0.3590    -0.8370 cd         1 6S0      -0.097400
     17 S17         -4.2360    -0.9670    -1.2900 ss         1 6S0      -0.046500
     18 N18         -2.4600     1.5540     1.0630 nb         1 6S0      -0.634000
     19 C19         -1.2520     1.0540     1.2310 ca         1 6S0       0.411200
     20 H1           0.8900     0.2450     2.8640 hc         1 6S0       0.046367
     21 H2           0.2660    -1.4080     2.8700 hc         1 6S0       0.046367
     22 H3           1.9650    -1.1030     2.5150 hc         1 6S0       0.046367
     23 H4           0.6820    -1.6270     0.4520 h1         1 6S0       0.063700
     24 H5           1.3750     1.2140     0.2580 hn         1 6S0       0.418800
     25 H6           3.0280     2.7280     0.1970 hc         1 6S0       0.048700
     26 H7           4.1460     2.8530    -1.1570 hc         1 6S0       0.048700
     27 H8           2.4770     2.3420    -1.4260 hc         1 6S0       0.048700
     28 H9           6.4940    -0.8930    -0.9590 h4         1 6S0       0.019100
     29 H10          5.0170    -2.7310    -0.1490 ha         1 6S0       0.137000
     30 H11          2.6740    -2.2270     0.4140 ha         1 6S0       0.133000
     31 H12         -1.3490    -1.7620    -0.6480 ha         1 6S0       0.147000
     32 H13         -5.1300     2.1360     0.3710 ha         1 6S0       0.170000
     33 H14         -6.2640     0.3980    -1.2170 h4         1 6S0       0.171000
     34 H15         -0.5950     1.6250     1.8790 h4         1 6S0       0.018100
@<TRIPOS>BOND
     1     1     2 1   
     2     1    20 1   
     3     1    21 1   
     4     1    22 1   
     5     2     3 1   
     6     2    11 1   
     7     2    23 1   
     8     3     4 1   
     9     3    24 1   
    10     4     5 ar  
    11     4    10 ar  
    12     5     6 1   
    13     5     7 ar  
    14     6    25 1   
    15     6    26 1   
    16     6    27 1   
    17     7     8 ar  
    18     8     9 ar  
    19     8    28 1   
    20     9    10 ar  
    21     9    29 1   
    22    10    30 1   
    23    11    12 ar  
    24    11    19 ar  
    25    12    13 ar  
    26    12    31 1   
    27    13    14 ar  
    28    13    17 1   
    29    14    15 1   
    30    14    18 ar  
    31    15    16 2   
    32    15    32 1   
    33    16    17 1   
    34    16    33 1   
    35    18    19 ar  
    36    19    34 1   
@<TRIPOS>SUBSTRUCTURE
     1 6S0         1 TEMP              0 ****  ****    0 ROOT
