@<TRIPOS>MOLECULE
6S0
   34    36     1     0     0
SMALL
No Charge or Current Charge


@<TRIPOS>ATOM
      1 C01          1.1120    -0.4590     2.4580 c3         1 6S0      -0.123100
      2 C02          0.5840    -0.6390     1.0180 c3         1 6S0       0.274800
      3 N03          1.4720     0.0460     0.0740 nu         1 6S0      -0.947200
      4 C04          2.8350    -0.2330    -0.1760 ca         1 6S0       0.269000
      5 C05          3.7500     0.7710    -0.6310 ca         1 6S0       0.293300
      6 C06          3.2980     2.2090    -0.8610 c3         1 6S0      -0.145400
      7 N07          5.0640     0.5290    -0.8850 nb         1 6S0      -0.645000
      8 C08          5.5210    -0.7300    -0.6970 ca         1 6S0       0.290900
      9 C09          4.6990    -1.7820    -0.2580 ca         1 6S0      -0.125000
     10 C10          3.3380    -1.5360     0.0040 ca         1 6S0      -0.157000
     11 C11         -0.8410    -0.1420     0.7910 ca         1 6S0      -0.141300
     12 C12         -1.5770    -0.6390    -0.3060 ca         1 6S0      -0.019000
     13 C13         -2.8800    -0.1580    -0.4750 ca         1 6S0      -0.223000
     14 C14         -3.4010     0.7650     0.4060 ca         1 6S0       0.371800
     15 C15         -4.7470     1.1490     0.0820 cc         1 6S0      -0.281800
     16 C16         -5.2130     0.4960    -1.0520 cd         1 6S0      -0.147400
     17 S17         -4.0090    -0.6190    -1.7660 ss         1 6S0       0.080400
     18 N18         -2.7300     1.2630     1.4580 nb         1 6S0      -0.634000
     19 C19         -1.4640     0.8080     1.6400 ca         1 6S0       0.345900
     20 H1           1.2410     0.6010     2.7060 hc         1 6S0       0.046367
     21 H2           0.4190    -0.9070     3.1790 hc         1 6S0       0.046367
     22 H3           2.0830    -0.9520     2.5770 hc         1 6S0       0.046367
     23 H4           0.5820    -1.7180     0.8020 h1         1 6S0       0.063700
     24 H5           1.1620     0.9730    -0.2190 hn         1 6S0       0.474000
     25 H6           2.8740     2.6350     0.0560 hc         1 6S0       0.048700
     26 H7           4.1270     2.8560    -1.1720 hc         1 6S0       0.048700
     27 H8           2.5310     2.2560    -1.6430 hc         1 6S0       0.048700
     28 H9           6.5760    -0.9000    -0.9060 h4         1 6S0       0.019100
     29 H10          5.1170    -2.7770    -0.1280 ha         1 6S0       0.119000
     30 H11          2.6970    -2.3470     0.3350 ha         1 6S0       0.115000
     31 H12         -1.1480    -1.3650    -0.9940 ha         1 6S0       0.129000
     32 H13         -5.3300     1.8630     0.6540 ha         1 6S0       0.220000
     33 H14         -6.1870     0.5940    -1.5210 h4         1 6S0       0.221000
     34 H15         -0.9420     1.2320     2.4960 h4         1 6S0       0.018100
@<TRIPOS>BOND
     1     1     2 1   
     2     1    20 1   
     3     1    21 1   
     4     1    22 1   
     5     2     3 1   
     6     2    11 1   
     7     2    23 1   
     8     3     4 1   
     9     3    24 1   
    10     4     5 ar  
    11     4    10 ar  
    12     5     6 1   
    13     5     7 ar  
    14     6    25 1   
    15     6    26 1   
    16     6    27 1   
    17     7     8 ar  
    18     8     9 ar  
    19     8    28 1   
    20     9    10 ar  
    21     9    29 1   
    22    10    30 1   
    23    11    12 ar  
    24    11    19 ar  
    25    12    13 ar  
    26    12    31 1   
    27    13    14 ar  
    28    13    17 1   
    29    14    15 1   
    30    14    18 ar  
    31    15    16 2   
    32    15    32 1   
    33    16    17 1   
    34    16    33 1   
    35    18    19 ar  
    36    19    34 1   
@<TRIPOS>SUBSTRUCTURE
     1 6S0         1 TEMP              0 ****  ****    0 ROOT
