@<TRIPOS>MOLECULE
6S1
   57    62     1     0     0
SMALL
No Charge or Current Charge


@<TRIPOS>ATOM
      1 C5           2.3730    -2.3080    -0.1330 ca         1 6S1      -0.053300
      2 C8           0.6630    -0.0660    -0.5380 ca         1 6S1       0.002800
      3 C3           4.4070    -4.6710     1.5990 cy         1 6S1      -0.097400
      4 C6           1.8090    -2.0360    -1.4060 ca         1 6S1      -0.093500
      5 C1           3.3090    -3.5240     0.1170 cy         1 6S1       0.202500
      6 C17         -1.6560     2.3360     0.2090 ca         1 6S1       0.043400
      7 C14          4.3680     3.5480    -0.9760 ca         1 6S1       0.410900
      8 C9           1.1940    -0.3360     0.7370 ca         1 6S1      -0.100500
      9 C4           2.8850    -4.4670     1.3040 cy         1 6S1      -0.103900
     10 C13          2.4410     3.5790     0.2440 ca         1 6S1       0.651900
     11 C7           0.9650    -0.9300    -1.6020 ca         1 6S1      -0.100500
     12 C2           4.5940    -3.2430     0.9870 cy         1 6S1      -0.103900
     13 C18         -1.4730     1.0760    -0.3180 ca         1 6S1       0.353500
     14 N1           3.6060    -4.2360    -1.1270 n8         1 6S1      -0.992200
     15 C10          2.0380    -1.4410     0.9340 ca         1 6S1      -0.093500
     16 N2          -0.1780     1.0280    -0.7540 na         1 6S1      -0.192100
     17 N6          -2.4460     0.1410    -0.3830 nb         1 6S1      -0.662000
     18 C21         -3.6700     0.4500     0.1130 cp         1 6S1       0.423500
     19 C22         -4.7240    -0.6240     0.0340 cp         1 6S1      -0.147500
     20 C23         -4.6250    -1.6900    -0.9040 ca         1 6S1      -0.081000
     21 C24         -5.6080    -2.6910    -0.9800 ca         1 6S1      -0.119500
     22 C25         -6.7150    -2.6590    -0.1190 ca         1 6S1      -0.099000
     23 C26         -6.8350    -1.6250     0.8210 ca         1 6S1      -0.119500
     24 C27         -5.8540    -0.6210     0.8980 ca         1 6S1      -0.081000
     25 C20         -3.9300     1.7380     0.6620 ca         1 6S1      -0.172000
     26 C19         -2.9070     2.7040     0.7150 ca         1 6S1      -0.025000
     27 N5          -0.5120     3.1150     0.1720 nc         1 6S1      -0.610100
     28 C11          0.3820     2.2690    -0.3790 cd         1 6S1       0.527400
     29 C12          1.7830     2.6680    -0.5940 ca         1 6S1      -0.260900
     30 C16          2.4980     2.2000    -1.7150 ca         1 6S1      -0.003000
     31 C15          3.8150     2.6460    -1.8970 ca         1 6S1      -0.241000
     32 N4           3.6810     4.0170     0.0870 nb         1 6S1      -0.766000
     33 H1           4.6800    -4.7790     2.6550 hc         1 6S1       0.050700
     34 H2           4.8820    -5.4820     1.0330 hc         1 6S1       0.050700
     35 H3           2.0100    -2.6780    -2.2590 ha         1 6S1       0.127500
     36 H4           5.3870     3.9130    -1.0980 h4         1 6S1       0.016100
     37 H5           0.9540     0.3090     1.5800 ha         1 6S1       0.130500
     38 H6           2.3280    -5.3670     1.0230 hc         1 6S1       0.058700
     39 H7           2.3380    -3.9740     2.1160 hc         1 6S1       0.058700
     40 H8           0.5440    -0.7440    -2.5880 ha         1 6S1       0.130500
     41 H9           4.5040    -2.4350     1.7210 hc         1 6S1       0.058700
     42 H10          5.5240    -3.0830     0.4310 hc         1 6S1       0.058700
     43 H11          4.1660    -3.6310    -1.7370 hn         1 6S1       0.399500
     44 H12          4.2350    -5.0180    -0.9230 hn         1 6S1       0.399500
     45 H14          2.4250    -1.6190     1.9340 ha         1 6S1       0.127500
     46 H15         -3.7820    -1.7390    -1.5890 ha         1 6S1       0.121500
     47 H16         -5.5110    -3.4930    -1.7090 ha         1 6S1       0.113500
     48 H17         -7.4750    -3.4350    -0.1770 ha         1 6S1       0.112000
     49 H18         -7.6890    -1.6010     1.4950 ha         1 6S1       0.113500
     50 H19         -5.9720     0.1540     1.6510 ha         1 6S1       0.121500
     51 H20         -4.9170     1.9930     1.0310 ha         1 6S1       0.126000
     52 H21         -3.0790     3.6940     1.1310 ha         1 6S1       0.132000
     53 H22          2.0470     1.5200    -2.4350 ha         1 6S1       0.123000
     54 H23          4.4030     2.3080    -2.7440 ha         1 6S1       0.127000
     55 H24          2.4140     4.9620     1.6420 hn         1 6S1       0.499500
     56 H25          0.9100     4.1710     1.3580 hn         1 6S1       0.499500
     57 N3           1.9260     4.1300     1.3390 nv         1 6S1      -1.056900
@<TRIPOS>BOND
     1     1     4 ar  
     2     1     5 1   
     3     1    15 ar  
     4     2     8 ar  
     5     2    11 ar  
     6     2    16 1   
     7     3     9 1   
     8     3    12 1   
     9     3    33 1   
    10     3    34 1   
    11     4    11 ar  
    12     4    35 1   
    13     5     9 1   
    14     5    12 1   
    15     5    14 1   
    16     6    13 ar  
    17     6    26 ar  
    18     6    27 1   
    19     7    31 ar  
    20     7    32 ar  
    21     7    36 1   
    22     8    15 ar  
    23     8    37 1   
    24     9    38 1   
    25     9    39 1   
    26    10    29 ar  
    27    10    32 ar  
    28    10    57 1   
    29    11    40 1   
    30    12    41 1   
    31    12    42 1   
    32    13    16 1   
    33    13    17 ar  
    34    14    43 1   
    35    14    44 1   
    36    15    45 1   
    37    16    28 1   
    38    17    18 ar  
    39    18    19 1   
    40    18    25 ar  
    41    19    20 ar  
    42    19    24 ar  
    43    20    21 ar  
    44    20    46 1   
    45    21    22 ar  
    46    21    47 1   
    47    22    23 ar  
    48    22    48 1   
    49    23    24 ar  
    50    23    49 1   
    51    24    50 1   
    52    25    26 ar  
    53    25    51 1   
    54    26    52 1   
    55    27    28 2   
    56    28    29 1   
    57    29    30 ar  
    58    30    31 ar  
    59    30    53 1   
    60    31    54 1   
    61    55    57 1   
    62    56    57 1   
@<TRIPOS>SUBSTRUCTURE
     1 6S1         1 TEMP              0 ****  ****    0 ROOT
