@<TRIPOS>MOLECULE
6S1
   57    62     1     0     0
SMALL
bcc


@<TRIPOS>ATOM
      1 C5           2.2570    -2.3730    -0.1480 ca         1 6S1      -0.053300
      2 C8           0.7200    -0.0350    -0.2010 ca         1 6S1       0.002800
      3 C3           4.3240    -4.8160     1.2360 cy         1 6S1      -0.097400
      4 C6           1.3390    -2.1380    -1.1700 ca         1 6S1      -0.111500
      5 C1           3.0810    -3.6390    -0.1040 cy         1 6S1       0.202500
      6 C17         -1.7470     2.5530    -0.0180 ca         1 6S1      -0.021900
      7 C14          4.3860     3.6400    -0.4760 ca         1 6S1       0.476200
      8 C9           1.6050    -0.2590     0.8450 ca         1 6S1      -0.118500
      9 C4           2.8070    -4.5980     1.0870 cy         1 6S1      -0.103900
     10 C13          2.2720     4.0110     0.3380 ca         1 6S1       0.717200
     11 C7           0.5800    -0.9780    -1.2060 ca         1 6S1      -0.118500
     12 C2           4.5490    -3.5330     0.4120 cy         1 6S1      -0.103900
     13 C18         -1.4210     1.1950    -0.1200 ca         1 6S1       0.418800
     14 N1           2.9570    -4.3650    -1.3550 n8         1 6S1      -0.881800
     15 C10          2.3680    -1.4130     0.8590 ca         1 6S1      -0.111500
     16 N2          -0.0510     1.1540    -0.2340 na         1 6S1      -0.192100
     17 N6          -2.2470     0.1780    -0.0870 nb         1 6S1      -0.662000
     18 C21         -3.5370     0.4860     0.0440 cp         1 6S1       0.488800
     19 C22         -4.4820    -0.6510     0.0710 cp         1 6S1      -0.147500
     20 C23         -4.1040    -1.8830    -0.4690 ca         1 6S1      -0.099000
     21 C24         -4.9760    -2.9610    -0.4560 ca         1 6S1      -0.137500
     22 C25         -6.2410    -2.8320     0.1030 ca         1 6S1      -0.117000
     23 C26         -6.6250    -1.6150     0.6500 ca         1 6S1      -0.137500
     24 C27         -5.7540    -0.5350     0.6340 ca         1 6S1      -0.099000
     25 C20         -3.9850     1.8170     0.1340 ca         1 6S1      -0.255300
     26 C19         -3.0910     2.8740     0.1100 ca         1 6S1      -0.043000
     27 N5          -0.6110     3.3100    -0.0740 nc         1 6S1      -0.610100
     28 C11          0.3800     2.4620    -0.2070 cd         1 6S1       0.527400
     29 C12          1.7790     2.8560    -0.3290 ca         1 6S1      -0.326200
     30 C16          2.6730     2.1410    -1.1170 ca         1 6S1      -0.021000
     31 C15          3.9990     2.5280    -1.2040 ca         1 6S1      -0.324300
     32 N4           3.5580     4.3620     0.2630 nb         1 6S1      -0.766000
     33 H1           4.7220    -4.8260     2.2490 hc         1 6S1       0.050700
     34 H2           4.6720    -5.7140     0.7260 hc         1 6S1       0.050700
     35 H3           1.2160    -2.8710    -1.9550 ha         1 6S1       0.145500
     36 H4           5.4170     3.9740    -0.4970 h4         1 6S1       0.016100
     37 H5           1.7010     0.4680     1.6410 ha         1 6S1       0.148500
     38 H6           2.1740    -5.4590     0.8640 hc         1 6S1       0.058700
     39 H7           2.3880    -4.0700     1.9440 hc         1 6S1       0.058700
     40 H8          -0.1140    -0.8070    -2.0190 ha         1 6S1       0.148500
     41 H9           4.7240    -2.6710     1.0570 hc         1 6S1       0.058700
     42 H10          5.3190    -3.5460    -0.3610 hc         1 6S1       0.058700
     43 H11          3.4690    -3.8800    -2.0840 hn         1 6S1       0.344300
     44 H12          3.3980    -5.2740    -1.2720 hn         1 6S1       0.344300
     45 H14          3.0540    -1.5620     1.6830 ha         1 6S1       0.145500
     46 H15         -3.1200    -1.9920    -0.9060 ha         1 6S1       0.139500
     47 H16         -4.6650    -3.9040    -0.8860 ha         1 6S1       0.131500
     48 H17         -6.9200    -3.6740     0.1170 ha         1 6S1       0.130000
     49 H18         -7.6040    -1.5050     1.0990 ha         1 6S1       0.131500
     50 H19         -6.0740     0.3970     1.0830 ha         1 6S1       0.139500
     51 H20         -5.0420     2.0260     0.2080 ha         1 6S1       0.144000
     52 H21         -3.4320     3.8980     0.1820 ha         1 6S1       0.150000
     53 H22          2.3340     1.2820    -1.6810 ha         1 6S1       0.141000
     54 H23          4.7060     1.9860    -1.8160 ha         1 6S1       0.145000
     55 H24          1.8740     5.6600     1.4210 hn         1 6S1       0.444300
     56 H25          0.4870     4.7560     0.9680 hn         1 6S1       0.444300
     57 N3           1.4840     4.7850     1.1150 nv         1 6S1      -0.946500
@<TRIPOS>BOND
     1     1     4 ar  
     2     1     5 1   
     3     1    15 ar  
     4     2     8 ar  
     5     2    11 ar  
     6     2    16 1   
     7     3     9 1   
     8     3    12 1   
     9     3    33 1   
    10     3    34 1   
    11     4    11 ar  
    12     4    35 1   
    13     5     9 1   
    14     5    12 1   
    15     5    14 1   
    16     6    13 ar  
    17     6    26 ar  
    18     6    27 1   
    19     7    31 ar  
    20     7    32 ar  
    21     7    36 1   
    22     8    15 ar  
    23     8    37 1   
    24     9    38 1   
    25     9    39 1   
    26    10    29 ar  
    27    10    32 ar  
    28    10    57 1   
    29    11    40 1   
    30    12    41 1   
    31    12    42 1   
    32    13    16 1   
    33    13    17 ar  
    34    14    43 1   
    35    14    44 1   
    36    15    45 1   
    37    16    28 1   
    38    17    18 ar  
    39    18    19 1   
    40    18    25 ar  
    41    19    20 ar  
    42    19    24 ar  
    43    20    21 ar  
    44    20    46 1   
    45    21    22 ar  
    46    21    47 1   
    47    22    23 ar  
    48    22    48 1   
    49    23    24 ar  
    50    23    49 1   
    51    24    50 1   
    52    25    26 ar  
    53    25    51 1   
    54    26    52 1   
    55    27    28 2   
    56    28    29 1   
    57    29    30 ar  
    58    30    31 ar  
    59    30    53 1   
    60    31    54 1   
    61    55    57 1   
    62    56    57 1   
@<TRIPOS>SUBSTRUCTURE
     1 6S1         1 TEMP              0 ****  ****    0 ROOT
