@<TRIPOS>MOLECULE
6S2
   36    36     1     0     0
SMALL
bcc


@<TRIPOS>ATOM
      1 O1          -0.1000    -3.1130    -0.2720 oh         1 6S2      -0.611800
      2 C11          1.3270     0.7520    -0.3600 c6         1 6S2       0.332900
      3 O11          1.7320     1.9910     0.0720 os         1 6S2      -0.388600
      4 O51          0.0300     0.5110     0.1200 os         1 6S2      -0.397600
      5 C51         -0.5100    -0.7100    -0.3320 c6         1 6S2       0.127100
      6 C61         -1.9480    -0.7850     0.1260 c3         1 6S2       0.198400
      7 O61         -2.6710     0.2430    -0.5330 os         1 6S2      -0.566500
      8 C41          0.3270    -1.8660     0.2280 c6         1 6S2       0.073100
      9 C31          1.7860    -1.6920    -0.1870 c6         1 6S2       0.136100
     10 O31          2.6210    -2.6380     0.4250 oh         1 6S2      -0.590800
     11 C21          2.2940    -0.3020     0.1850 c6         1 6S2       0.083700
     12 N2           3.6200    -0.0950    -0.3310 ns         1 6S2      -0.556900
     13 C7           4.6450     0.4160     0.3780 c          1 6S2       0.680100
     14 C8           5.9050     0.6450    -0.4200 c3         1 6S2      -0.180100
     15 O7           4.5680     0.6970     1.5660 o          1 6S2      -0.597100
     16 S1          -4.2070     0.5250    -0.0250 s6         1 6S2       1.498300
     17 O21         -4.9050    -0.7580    -0.1530 o          1 6S2      -0.708200
     18 O8          -4.0900     0.9950     1.3570 o          1 6S2      -0.708200
     19 O9          -4.6250     1.5440    -0.9830 o          1 6S2      -0.708200
     20 C10          1.1330     3.0770    -0.6090 c3         1 6S2       0.125700
     21 H13         -0.4820    -0.7580    -1.4320 h1         1 6S2       0.054700
     22 H14         -2.3570    -1.7660    -0.1300 h1         1 6S2       0.040200
     23 H15         -1.9950    -0.6690     1.2150 h1         1 6S2       0.040200
     24 H16          0.2710    -1.8390     1.3260 h1         1 6S2       0.060700
     25 H17          1.8260    -1.7870    -1.2860 h1         1 6S2       0.030700
     26 H18          2.3180    -3.5140     0.1630 ho         1 6S2       0.412000
     27 H19          2.3290    -0.2070     1.2730 h1         1 6S2       0.118700
     28 H20          3.7710    -0.2890    -1.3090 hn         1 6S2       0.301500
     29 H21          5.9030     1.6650    -0.8100 hc         1 6S2       0.053367
     30 H22          6.7780     0.5360     0.2200 hc         1 6S2       0.053367
     31 H23          5.9990    -0.0330    -1.2670 hc         1 6S2       0.053367
     32 H24          1.6220     3.9860    -0.2630 h1         1 6S2       0.037033
     33 H25          1.2720     2.9940    -1.6910 h1         1 6S2       0.037033
     34 H26          0.0630     3.1570    -0.4030 h1         1 6S2       0.037033
     35 H2          -0.7630    -3.4810     0.3170 ho         1 6S2       0.418000
     36 H12          1.3200     0.7010    -1.4670 h2         1 6S2       0.010700
@<TRIPOS>BOND
     1     1     8 1   
     2     1    35 1   
     3     2     3 1   
     4     2     4 1   
     5     2    11 1   
     6     2    36 1   
     7     3    20 1   
     8     4     5 1   
     9     5     6 1   
    10     5     8 1   
    11     5    21 1   
    12     6     7 1   
    13     6    22 1   
    14     6    23 1   
    15     7    16 1   
    16     8     9 1   
    17     8    24 1   
    18     9    10 1   
    19     9    11 1   
    20     9    25 1   
    21    10    26 1   
    22    11    12 1   
    23    11    27 1   
    24    12    13 1   
    25    12    28 1   
    26    13    14 1   
    27    13    15 2   
    28    14    29 1   
    29    14    30 1   
    30    14    31 1   
    31    16    17 1   
    32    16    18 1   
    33    16    19 1   
    34    20    32 1   
    35    20    33 1   
    36    20    34 1   
@<TRIPOS>SUBSTRUCTURE
     1 6S2         1 TEMP              0 ****  ****    0 ROOT
