@<TRIPOS>MOLECULE
6S2
   36    36     1     0     0
SMALL
No Charge or Current Charge


@<TRIPOS>ATOM
      1 O1          -0.1880    -3.1550    -0.2810 oh         1 6S2      -0.734000
      2 C11          1.4070     0.7840    -0.3670 c6         1 6S2       0.379300
      3 O11          1.8350     2.0900     0.0550 os         1 6S2      -0.435000
      4 O51          0.0780     0.5540     0.1370 os         1 6S2      -0.444000
      5 C51         -0.5280    -0.6770    -0.3280 c6         1 6S2       0.150300
      6 C61         -2.0050    -0.7060     0.1800 c3         1 6S2       0.221600
      7 O61         -2.7700     0.3130    -0.4900 os         1 6S2      -0.589700
      8 C41          0.3210    -1.8840     0.1880 c6         1 6S2       0.096300
      9 C31          1.7960    -1.7040    -0.2840 c6         1 6S2       0.159300
     10 O31          2.5930    -2.7920     0.2090 oh         1 6S2      -0.653000
     11 C21          2.3690    -0.3260     0.1640 c6         1 6S2       0.083700
     12 N2           3.7640    -0.1490    -0.3130 ns         1 6S2      -0.489900
     13 C7           4.7510     0.5540     0.3380 c          1 6S2       0.613100
     14 C8           6.0830     0.6120    -0.4000 c3         1 6S2      -0.180100
     15 O7           4.5800     1.0790     1.4290 o          1 6S2      -0.597100
     16 S1          -4.3520     0.4170    -0.0670 s6         1 6S2       1.498300
     17 O21         -4.9040    -0.8990    -0.4200 o          1 6S2      -0.708200
     18 O8          -4.3230     0.6900     1.3770 o          1 6S2      -0.708200
     19 O9          -4.8610     1.5270    -0.8850 o          1 6S2      -0.708200
     20 C10          1.1130     3.2030    -0.4990 c3         1 6S2       0.148900
     21 H13         -0.5390    -0.6800    -1.4280 h1         1 6S2       0.054700
     22 H14         -2.4250    -1.6990    -0.0290 h1         1 6S2       0.040200
     23 H15         -2.0030    -0.5580     1.2680 h1         1 6S2       0.040200
     24 H16          0.3110    -1.8590     1.2900 h1         1 6S2       0.060700
     25 H17          1.8000    -1.7270    -1.3850 h1         1 6S2       0.030700
     26 H18          2.0280    -3.5890     0.0790 ho         1 6S2       0.451000
     27 H19          2.3600    -0.2840     1.2630 h1         1 6S2       0.118700
     28 H20          4.0260    -0.5750    -1.1930 hn         1 6S2       0.301500
     29 H21          5.9190     1.0300    -1.4000 hc         1 6S2       0.053367
     30 H22          6.8480     1.1710     0.1510 hc         1 6S2       0.053367
     31 H23          6.4120    -0.4080    -0.6250 hc         1 6S2       0.053367
     32 H24          1.5350     4.1480    -0.1370 h1         1 6S2       0.037033
     33 H25          1.1730     3.1990    -1.5950 h1         1 6S2       0.037033
     34 H26          0.0550     3.1700    -0.2090 h1         1 6S2       0.037033
     35 H2          -0.8400    -3.4860     0.3820 ho         1 6S2       0.517000
     36 H12          1.3910     0.7520    -1.4660 h2         1 6S2       0.010700
@<TRIPOS>BOND
     1     1     8 1   
     2     1    35 1   
     3     2     3 1   
     4     2     4 1   
     5     2    11 1   
     6     2    36 1   
     7     3    20 1   
     8     4     5 1   
     9     5     6 1   
    10     5     8 1   
    11     5    21 1   
    12     6     7 1   
    13     6    22 1   
    14     6    23 1   
    15     7    16 1   
    16     8     9 1   
    17     8    24 1   
    18     9    10 1   
    19     9    11 1   
    20     9    25 1   
    21    10    26 1   
    22    11    12 1   
    23    11    27 1   
    24    12    13 1   
    25    12    28 1   
    26    13    14 1   
    27    13    15 2   
    28    14    29 1   
    29    14    30 1   
    30    14    31 1   
    31    16    17 1   
    32    16    18 1   
    33    16    19 1   
    34    20    32 1   
    35    20    33 1   
    36    20    34 1   
@<TRIPOS>SUBSTRUCTURE
     1 6S2         1 TEMP              0 ****  ****    0 ROOT
