@<TRIPOS>MOLECULE
6S3
   49    52     1     0     0
SMALL
No Charge or Current Charge


@<TRIPOS>ATOM
      1 CAT         -5.7100     1.3640     0.3130 c6         1 6S3       0.203300
      2 CAU         -7.1880     1.2280    -0.1800 c6         1 6S3       0.155300
      3 NAV         -7.8990     0.0630     0.4310 n3         1 6S3      -0.712600
      4 CAY         -9.3090    -0.0370    -0.0040 c3         1 6S3       0.151100
      5 CAW         -7.1250    -1.1910     0.1770 c6         1 6S3       0.155300
      6 CAX         -5.6460    -1.1040     0.6770 c6         1 6S3       0.203300
      7 NAS         -4.9260     0.0980     0.1440 nh         1 6S3      -0.791400
      8 CAP         -3.5120     0.1090     0.0970 ca         1 6S3       0.327000
      9 CAO         -2.8260    -0.9180    -0.5740 ca         1 6S3      -0.178500
     10 CAN         -1.4220    -0.9270    -0.6340 ca         1 6S3      -0.052500
     11 CAQ         -2.7640     1.1330     0.7090 ca         1 6S3      -0.178500
     12 CAR         -1.3600     1.1290     0.6510 ca         1 6S3      -0.052500
     13 CAM         -0.6740     0.1010    -0.0260 ca         1 6S3      -0.101800
     14 CAH          0.7890     0.0870    -0.0890 cc         1 6S3       0.037700
     15 CAI          1.5470    -1.0660    -0.0280 cd         1 6S3      -0.224200
     16 CAE          2.9470    -0.7130    -0.0460 ca         1 6S3      -0.108800
     17 CAD          4.0950    -1.5060    -0.0030 ca         1 6S3       0.180000
     18 ClAK         4.0050    -3.2610     0.0830 cl         1 6S3      -0.181000
     19 CAA          5.3280    -0.8400    -0.0290 ca         1 6S3      -0.132000
     20 CAB          5.3570     0.5750    -0.0950 ca         1 6S3       0.309500
     21 CAJ          6.7120     1.3020    -0.1230 c          1 6S3       0.513600
     22 OBA          7.7920     0.7270    -0.0920 o          1 6S3      -0.606100
     23 NAZ          6.6960     2.6590    -0.1860 nt         1 6S3      -0.589000
     24 NAC          4.2040     1.3190    -0.1350 nb         1 6S3      -0.690000
     25 CAF          3.0240     0.6620    -0.1110 ca         1 6S3       0.371500
     26 NAG          1.7160     1.1460    -0.1380 na         1 6S3      -0.185400
     27 CAL          1.4410     2.5840    -0.3000 c3         1 6S3       0.064900
     28 H1          -5.2350     2.1830    -0.2480 h1         1 6S3       0.046950
     29 H2          -5.7200     1.6550     1.3740 h1         1 6S3       0.046950
     30 H3          -7.7190     2.1620     0.0510 h1         1 6S3       0.041200
     31 H4          -7.1790     1.1290    -1.2760 h1         1 6S3       0.041200
     32 H6          -9.3740    -0.1990    -1.0880 h1         1 6S3       0.033367
     33 H7          -9.8110    -0.8740     0.5000 h1         1 6S3       0.033367
     34 H8          -9.8560     0.8830     0.2400 h1         1 6S3       0.033367
     35 H9          -7.6110    -2.0440     0.6730 h1         1 6S3       0.041200
     36 H10         -7.1130    -1.4130    -0.9000 h1         1 6S3       0.041200
     37 H11         -5.6500    -1.0710     1.7770 h1         1 6S3       0.046950
     38 H12         -5.1310    -2.0310     0.3870 h1         1 6S3       0.046950
     39 H13         -3.3840    -1.7090    -1.0650 ha         1 6S3       0.116000
     40 H14         -0.9190    -1.7270    -1.1710 ha         1 6S3       0.115000
     41 H15         -3.2640     1.9320     1.2480 ha         1 6S3       0.116000
     42 H16         -0.8080     1.9200     1.1530 ha         1 6S3       0.115000
     43 H17          1.1490    -2.0740     0.0560 ha         1 6S3       0.218000
     44 H18          6.2530    -1.4090     0.0020 ha         1 6S3       0.161000
     45 H19          5.8060     3.1380    -0.2110 hn         1 6S3       0.325000
     46 H20          7.5640     3.1720    -0.2060 hn         1 6S3       0.325000
     47 H21          1.4130     3.0660     0.6840 h1         1 6S3       0.055367
     48 H22          2.2240     3.0520    -0.9100 h1         1 6S3       0.055367
     49 H23          0.4760     2.7240    -0.8030 h1         1 6S3       0.055367
@<TRIPOS>BOND
     1     1     2 1   
     2     1     7 1   
     3     1    28 1   
     4     1    29 1   
     5     2     3 1   
     6     2    30 1   
     7     2    31 1   
     8     3     4 1   
     9     3     5 1   
    10     4    32 1   
    11     4    33 1   
    12     4    34 1   
    13     5     6 1   
    14     5    35 1   
    15     5    36 1   
    16     6     7 1   
    17     6    37 1   
    18     6    38 1   
    19     7     8 1   
    20     8     9 ar  
    21     8    11 ar  
    22     9    10 ar  
    23     9    39 1   
    24    10    13 ar  
    25    10    40 1   
    26    11    12 ar  
    27    11    41 1   
    28    12    13 ar  
    29    12    42 1   
    30    13    14 1   
    31    14    15 2   
    32    14    26 1   
    33    15    16 1   
    34    15    43 1   
    35    16    17 ar  
    36    16    25 ar  
    37    17    18 1   
    38    17    19 ar  
    39    19    20 ar  
    40    19    44 1   
    41    20    21 1   
    42    20    24 ar  
    43    21    22 2   
    44    21    23 1   
    45    23    45 1   
    46    23    46 1   
    47    24    25 ar  
    48    25    26 1   
    49    26    27 1   
    50    27    47 1   
    51    27    48 1   
    52    27    49 1   
@<TRIPOS>SUBSTRUCTURE
     1 6S3         1 TEMP              0 ****  ****    0 ROOT
