@<TRIPOS>MOLECULE
6S3
   49    52     1     0     0
SMALL
bcc


@<TRIPOS>ATOM
      1 CAT         -5.5400     1.2350     0.6170 c6         1 6S3       0.203300
      2 CAU         -6.9850     1.3200     0.1620 c6         1 6S3       0.155300
      3 NAV         -7.6950     0.0890     0.4270 n3         1 6S3      -0.712600
      4 CAY         -9.0940     0.1940     0.0820 c3         1 6S3       0.151100
      5 CAW         -7.0450    -0.9980    -0.2720 c6         1 6S3       0.155300
      6 CAX         -5.6060    -1.1440     0.1790 c6         1 6S3       0.203300
      7 NAS         -4.8670     0.1000     0.0130 nh         1 6S3      -0.653000
      8 CAP         -3.4850     0.0580     0.0510 ca         1 6S3       0.188600
      9 CAO         -2.7730    -1.0210    -0.5060 ca         1 6S3      -0.196500
     10 CAN         -1.3950    -1.0490    -0.5070 ca         1 6S3      -0.070500
     11 CAQ         -2.7200     1.0910     0.6180 ca         1 6S3      -0.196500
     12 CAR         -1.3370     1.0550     0.6060 ca         1 6S3      -0.070500
     13 CAM         -0.6380    -0.0110     0.0430 ca         1 6S3      -0.101800
     14 CAH          0.8170    -0.1090     0.0680 cc         1 6S3       0.037700
     15 CAI          1.5660    -1.2360     0.3210 cd         1 6S3      -0.174200
     16 CAE          2.9230    -0.8490     0.2530 ca         1 6S3      -0.174100
     17 CAD          4.1650    -1.4500     0.4090 ca         1 6S3       0.088400
     18 CLAK         4.2610    -3.1300     0.7810 cl         1 6S3      -0.089400
     19 CAA          5.3090    -0.6910     0.2590 ca         1 6S3      -0.215300
     20 CAB          5.1810     0.6660    -0.0510 ca         1 6S3       0.374800
     21 CAJ          6.4230     1.4890    -0.2280 c          1 6S3       0.580600
     22 OBA          7.5340     0.9910    -0.1020 o          1 6S3      -0.606100
     23 NAZ          6.2050     2.7730    -0.5260 nt         1 6S3      -0.656000
     24 NAC          4.0150     1.2820    -0.2030 nb         1 6S3      -0.690000
     25 CAF          2.9430     0.5350    -0.0480 ca         1 6S3       0.436800
     26 NAG          1.6540     0.9630    -0.1610 na         1 6S3      -0.156100
     27 CAL          1.2890     2.3030    -0.5650 c3         1 6S3       0.035600
     28 H1          -5.0480     2.1580     0.3090 h1         1 6S3       0.046950
     29 H2          -5.4980     1.1870     1.7150 h1         1 6S3       0.046950
     30 H3          -7.4650     2.1400     0.7010 h1         1 6S3       0.041200
     31 H4          -7.0100     1.5800    -0.9110 h1         1 6S3       0.041200
     32 H6          -9.2620     0.4090    -0.9840 h1         1 6S3       0.033367
     33 H7          -9.6090    -0.7380     0.3210 h1         1 6S3       0.033367
     34 H8          -9.5610     0.9920     0.6600 h1         1 6S3       0.033367
     35 H9          -7.5670    -1.9320    -0.0550 h1         1 6S3       0.041200
     36 H10         -7.0730    -0.8540    -1.3660 h1         1 6S3       0.041200
     37 H11         -5.5830    -1.4640     1.2300 h1         1 6S3       0.046950
     38 H12         -5.1540    -1.9380    -0.4100 h1         1 6S3       0.046950
     39 H13         -3.2930    -1.8460    -0.9720 ha         1 6S3       0.134000
     40 H14         -0.8930    -1.8910    -0.9670 ha         1 6S3       0.133000
     41 H15         -3.1920     1.9340     1.0990 ha         1 6S3       0.134000
     42 H16         -0.8050     1.8660     1.0860 ha         1 6S3       0.133000
     43 H17          1.1740    -2.2100     0.5660 ha         1 6S3       0.168000
     44 H18          6.2880    -1.1310     0.3770 ha         1 6S3       0.179000
     45 H19          5.2680     3.1230    -0.6330 hn         1 6S3       0.325000
     46 H20          6.9780     3.3970    -0.6880 hn         1 6S3       0.325000
     47 H21          1.1310     2.9540     0.2940 h1         1 6S3       0.055367
     48 H22          2.0910     2.7190    -1.1690 h1         1 6S3       0.055367
     49 H23          0.3820     2.2760    -1.1630 h1         1 6S3       0.055367
@<TRIPOS>BOND
     1     1     2 1   
     2     1     7 1   
     3     1    28 1   
     4     1    29 1   
     5     2     3 1   
     6     2    30 1   
     7     2    31 1   
     8     3     4 1   
     9     3     5 1   
    10     4    32 1   
    11     4    33 1   
    12     4    34 1   
    13     5     6 1   
    14     5    35 1   
    15     5    36 1   
    16     6     7 1   
    17     6    37 1   
    18     6    38 1   
    19     7     8 1   
    20     8     9 ar  
    21     8    11 ar  
    22     9    10 ar  
    23     9    39 1   
    24    10    13 ar  
    25    10    40 1   
    26    11    12 ar  
    27    11    41 1   
    28    12    13 ar  
    29    12    42 1   
    30    13    14 1   
    31    14    15 2   
    32    14    26 1   
    33    15    16 1   
    34    15    43 1   
    35    16    17 ar  
    36    16    25 ar  
    37    17    18 1   
    38    17    19 ar  
    39    19    20 ar  
    40    19    44 1   
    41    20    21 1   
    42    20    24 ar  
    43    21    22 2   
    44    21    23 1   
    45    23    45 1   
    46    23    46 1   
    47    24    25 ar  
    48    25    26 1   
    49    26    27 1   
    50    27    47 1   
    51    27    48 1   
    52    27    49 1   
@<TRIPOS>SUBSTRUCTURE
     1 6S3         1 TEMP              0 ****  ****    0 ROOT
