@<TRIPOS>MOLECULE
6S4
   37    38     1     0     0
SMALL
bcc


@<TRIPOS>ATOM
      1 C4          -1.4710     0.5160     0.2820 c          1 6S4       0.677100
      2 C5          -0.0420     0.4660    -0.2430 c6         1 6S4       0.086500
      3 C6           0.7180    -0.6590     0.4690 c6         1 6S4      -0.066100
      4 N1           0.5850     1.7590    -0.0520 n7         1 6S4      -0.780200
      5 C7           2.2000    -0.5790     0.2110 ca         1 6S4      -0.076300
      6 C8           3.0160    -1.6760     0.4880 ca         1 6S4      -0.124000
      7 C9           4.3850    -1.6210     0.2830 ca         1 6S4      -0.126000
      8 C10          4.9600    -0.4550    -0.2100 ca         1 6S4      -0.126000
      9 C11          4.1560     0.6370    -0.4910 ca         1 6S4      -0.120000
     10 C12          2.7790     0.5900    -0.2820 ca         1 6S4      -0.115300
     11 C13          1.9190     1.7880    -0.6150 c6         1 6S4       0.198100
     12 O           -1.7250     1.1070     1.3240 o          1 6S4      -0.606100
     13 N           -2.3640    -0.1580    -0.4510 ns         1 6S4      -0.570900
     14 C1          -3.7810    -0.3780    -0.1360 c3         1 6S4       0.140400
     15 C3          -4.5350     0.9510    -0.0830 c3         1 6S4      -0.103767
     16 C2          -4.3420    -1.2320    -1.2720 c3         1 6S4      -0.103767
     17 C           -3.9320    -1.1360     1.1840 c3         1 6S4      -0.103767
     18 H1          -0.0470     0.2580    -1.3190 h1         1 6S4       0.065700
     19 H2           0.5370    -0.5840     1.5470 hc         1 6S4       0.061700
     20 H3           0.3360    -1.6350     0.1580 hc         1 6S4       0.061700
     21 H4           0.6290     1.9590     0.9400 hn         1 6S4       0.377800
     22 H6           2.5670    -2.5860     0.8710 ha         1 6S4       0.129000
     23 H7           5.0020    -2.4820     0.5090 ha         1 6S4       0.131000
     24 H8           6.0290    -0.3990    -0.3710 ha         1 6S4       0.132000
     25 H9           4.6020     1.5480    -0.8770 ha         1 6S4       0.130000
     26 H10          1.8390     1.8730    -1.7050 h1         1 6S4       0.061200
     27 H11          2.4130     2.7020    -0.2800 h1         1 6S4       0.061200
     28 H12         -2.0230    -0.5900    -1.2960 hn         1 6S4       0.308500
     29 H13         -4.4320     1.4960    -1.0240 hc         1 6S4       0.044478
     30 H14         -5.5980     0.7700     0.0860 hc         1 6S4       0.044478
     31 H15         -4.1740     1.5890     0.7210 hc         1 6S4       0.044478
     32 H16         -3.8340    -2.1970    -1.3310 hc         1 6S4       0.044478
     33 H17         -5.4030    -1.4220    -1.1090 hc         1 6S4       0.044478
     34 H18         -4.2360    -0.7290    -2.2350 hc         1 6S4       0.044478
     35 H19         -3.5790    -0.5530     2.0330 hc         1 6S4       0.044478
     36 H20         -4.9820    -1.3760     1.3560 hc         1 6S4       0.044478
     37 H21         -3.3720    -2.0730     1.1550 hc         1 6S4       0.044478
@<TRIPOS>BOND
     1     1     2 1   
     2     1    12 2   
     3     1    13 1   
     4     2     3 1   
     5     2     4 1   
     6     2    18 1   
     7     3     5 1   
     8     3    19 1   
     9     3    20 1   
    10     4    11 1   
    11     4    21 1   
    12     5     6 ar  
    13     5    10 ar  
    14     6     7 ar  
    15     6    22 1   
    16     7     8 ar  
    17     7    23 1   
    18     8     9 ar  
    19     8    24 1   
    20     9    10 ar  
    21     9    25 1   
    22    10    11 1   
    23    11    26 1   
    24    11    27 1   
    25    13    14 1   
    26    13    28 1   
    27    14    15 1   
    28    14    16 1   
    29    14    17 1   
    30    15    29 1   
    31    15    30 1   
    32    15    31 1   
    33    16    32 1   
    34    16    33 1   
    35    16    34 1   
    36    17    35 1   
    37    17    36 1   
    38    17    37 1   
@<TRIPOS>SUBSTRUCTURE
     1 6S4         1 TEMP              0 ****  ****    0 ROOT
