@<TRIPOS>MOLECULE
6S4
   37    38     1     0     0
SMALL
No Charge or Current Charge


@<TRIPOS>ATOM
      1 C4          -1.6070     0.9850     0.0390 c          1 6S4       0.610100
      2 C5          -0.0390     0.9450    -0.1680 c6         1 6S4       0.086500
      3 C6           0.5480    -0.4730    -0.4370 c6         1 6S4      -0.066100
      4 N1           0.7360     1.5820     0.9500 n7         1 6S4      -0.835400
      5 C7           2.0790    -0.5000    -0.4830 ca         1 6S4      -0.076300
      6 C8           2.7390    -1.6300    -1.0030 ca         1 6S4      -0.106000
      7 C9           4.1430    -1.6830    -1.0320 ca         1 6S4      -0.108000
      8 C10          4.8940    -0.6050    -0.5360 ca         1 6S4      -0.108000
      9 C11          4.2430     0.5230    -0.0110 ca         1 6S4      -0.102000
     10 C12          2.8350     0.5830     0.0230 ca         1 6S4      -0.115300
     11 C13          2.1480     1.8350     0.5810 c6         1 6S4       0.198100
     12 O           -2.1930     2.0430     0.2420 o          1 6S4      -0.606100
     13 N           -2.2760    -0.2310    -0.0260 ns         1 6S4      -0.503900
     14 C1          -3.7170    -0.4720     0.1280 c3         1 6S4       0.140400
     15 C3          -4.5160     0.2690    -0.9730 c3         1 6S4      -0.103767
     16 C2          -3.9360    -1.9950    -0.0300 c3         1 6S4      -0.103767
     17 C           -4.1970    -0.0390     1.5360 c3         1 6S4      -0.103767
     18 H1           0.1220     1.5420    -1.0780 h1         1 6S4       0.065700
     19 H2           0.2250    -1.1660     0.3520 hc         1 6S4       0.061700
     20 H3           0.1450    -0.8630    -1.3830 hc         1 6S4       0.061700
     21 H4           0.7210     0.9490     1.7600 hn         1 6S4       0.433000
     22 H6           2.1630    -2.4710    -1.3840 ha         1 6S4       0.111000
     23 H7           4.6470    -2.5580    -1.4360 ha         1 6S4       0.113000
     24 H8           5.9810    -0.6440    -0.5580 ha         1 6S4       0.114000
     25 H9           4.8330     1.3550     0.3680 ha         1 6S4       0.112000
     26 H10          2.1910     2.6270    -0.1820 h1         1 6S4       0.061200
     27 H11          2.6990     2.1990     1.4610 h1         1 6S4       0.061200
     28 H12         -1.6950    -1.0400    -0.1990 hn         1 6S4       0.308500
     29 H13         -4.1480     0.0000    -1.9700 hc         1 6S4       0.044478
     30 H14         -5.5800     0.0050    -0.9230 hc         1 6S4       0.044478
     31 H15         -4.4430     1.3570    -0.8650 hc         1 6S4       0.044478
     32 H16         -3.3790    -2.5540     0.7320 hc         1 6S4       0.044478
     33 H17         -4.9980    -2.2510     0.0740 hc         1 6S4       0.044478
     34 H18         -3.6020    -2.3390    -1.0170 hc         1 6S4       0.044478
     35 H19         -4.1190     1.0450     1.6760 hc         1 6S4       0.044478
     36 H20         -5.2470    -0.3150     1.6900 hc         1 6S4       0.044478
     37 H21         -3.6010    -0.5260     2.3180 hc         1 6S4       0.044478
@<TRIPOS>BOND
     1     1     2 1   
     2     1    12 2   
     3     1    13 1   
     4     2     3 1   
     5     2     4 1   
     6     2    18 1   
     7     3     5 1   
     8     3    19 1   
     9     3    20 1   
    10     4    11 1   
    11     4    21 1   
    12     5     6 ar  
    13     5    10 ar  
    14     6     7 ar  
    15     6    22 1   
    16     7     8 ar  
    17     7    23 1   
    18     8     9 ar  
    19     8    24 1   
    20     9    10 ar  
    21     9    25 1   
    22    10    11 1   
    23    11    26 1   
    24    11    27 1   
    25    13    14 1   
    26    13    28 1   
    27    14    15 1   
    28    14    16 1   
    29    14    17 1   
    30    15    29 1   
    31    15    30 1   
    32    15    31 1   
    33    16    32 1   
    34    16    33 1   
    35    16    34 1   
    36    17    35 1   
    37    17    36 1   
    38    17    37 1   
@<TRIPOS>SUBSTRUCTURE
     1 6S4         1 TEMP              0 ****  ****    0 ROOT
