@<TRIPOS>MOLECULE
6S5
   52    55     1     0     0
SMALL
No Charge or Current Charge


@<TRIPOS>ATOM
      1 C6           1.9170     0.2170    -0.8050 c6         1 6S5      -0.139700
      2 N1          -0.7960    -0.9540    -1.0760 n          1 6S5      -0.410800
      3 C7           0.6560     1.1110    -0.8270 c6         1 6S5      -0.090400
      4 C8          -0.4990     0.4180    -1.5860 c6         1 6S5       0.097500
      5 N2          -4.6170    -1.5790    -1.0040 n7         1 6S5      -0.835400
      6 C9           0.4110    -1.8310    -1.0590 c6         1 6S5       0.097500
      7 C10          1.6070    -1.2100    -0.2970 c6         1 6S5      -0.090400
      8 C11         -2.0490    -1.5280    -1.3960 c          1 6S5       0.615100
      9 C12         -3.3690    -0.7400    -1.0110 c6         1 6S5       0.094500
     10 C13         -3.2500     0.0300     0.3420 c6         1 6S5      -0.069100
     11 C14         -4.5800     0.5780     0.8730 ca         1 6S5      -0.078300
     12 C15         -5.8090     0.1870     0.2960 ca         1 6S5      -0.115300
     13 O2          -2.0990    -2.6230    -1.9530 o          1 6S5      -0.596100
     14 C16         -5.8470    -0.7630    -0.9050 c6         1 6S5       0.198100
     15 C17         -7.0160     0.6950     0.8160 ca         1 6S5      -0.102000
     16 C18         -7.0020     1.5810     1.9060 ca         1 6S5      -0.108000
     17 C19         -5.7810     1.9650     2.4830 ca         1 6S5      -0.107000
     18 C20         -4.5740     1.4640     1.9680 ca         1 6S5      -0.106000
     19 H1           2.2170     0.0990    -1.8560 hc         1 6S5       0.048700
     20 H3           0.3350     1.3280     0.2010 hc         1 6S5       0.062700
     21 H4           0.8820     2.0790    -1.2970 hc         1 6S5       0.062700
     22 H5          -0.2210     0.3360    -2.6470 h1         1 6S5       0.056700
     23 H6          -1.3900     1.0580    -1.5530 h1         1 6S5       0.056700
     24 H7          -4.5800    -2.2120    -0.1950 hn         1 6S5       0.433000
     25 H9           0.1580    -2.7950    -0.5940 h1         1 6S5       0.056700
     26 H10          0.7120    -2.0390    -2.0960 h1         1 6S5       0.056700
     27 H11          2.4910    -1.8540    -0.4030 hc         1 6S5       0.062700
     28 H12          1.3700    -1.1750     0.7750 hc         1 6S5       0.062700
     29 H13         -3.4740     0.0130    -1.8070 h1         1 6S5       0.072700
     30 H14         -2.8310    -0.6470     1.0990 hc         1 6S5       0.062200
     31 H15         -2.5360     0.8580     0.2590 hc         1 6S5       0.062200
     32 H16         -5.9710    -0.1680    -1.8220 h1         1 6S5       0.061700
     33 H17         -6.7230    -1.4260    -0.8240 h1         1 6S5       0.061700
     34 H18         -7.9660     0.4050     0.3730 ha         1 6S5       0.112000
     35 H19         -7.9380     1.9700     2.3030 ha         1 6S5       0.114000
     36 H20         -5.7700     2.6500     3.3280 ha         1 6S5       0.114000
     37 H21         -3.6320     1.7630     2.4220 ha         1 6S5       0.113000
     38 C22          3.1280     0.8710    -0.1050 c          1 6S5       0.605100
     39 N3           4.2190     1.1260    -0.9070 ns         1 6S5      -0.504900
     40 C5           5.4820     1.7070    -0.4340 c3         1 6S5       0.076700
     41 C4           6.3570     0.7170     0.2920 cc         1 6S5       0.091300
     42 O1           3.1190     1.1450     1.0860 o          1 6S5      -0.591100
     43 C3           6.5710    -0.6190     0.0830 cd         1 6S5      -0.175000
     44 C2           7.4930    -1.0460     1.0600 cd         1 6S5      -0.191000
     45 C1           7.8060     0.0450     1.8240 cc         1 6S5       0.127900
     46 O3           7.1140     1.1430     1.3610 os         1 6S5      -0.222000
     47 H2           4.1380     0.8690    -1.8840 hn         1 6S5       0.313500
     48 H8           6.0350     2.1000    -1.2970 h1         1 6S5       0.074700
     49 H22          5.2620     2.5520     0.2330 h1         1 6S5       0.074700
     50 H23          6.1120    -1.2270    -0.6910 ha         1 6S5       0.139000
     51 H24          7.8860    -2.0490     1.1890 ha         1 6S5       0.143000
     52 H25          8.4630     0.1770     2.6730 h4         1 6S5       0.054100
@<TRIPOS>BOND
     1     1     3 1   
     2     1     7 1   
     3     1    19 1   
     4     1    38 1   
     5     2     4 1   
     6     2     6 1   
     7     2     8 1   
     8     3     4 1   
     9     3    20 1   
    10     3    21 1   
    11     4    22 1   
    12     4    23 1   
    13     5     9 1   
    14     5    14 1   
    15     5    24 1   
    16     6     7 1   
    17     6    25 1   
    18     6    26 1   
    19     7    27 1   
    20     7    28 1   
    21     8     9 1   
    22     8    13 2   
    23     9    10 1   
    24     9    29 1   
    25    10    11 1   
    26    10    30 1   
    27    10    31 1   
    28    11    12 ar  
    29    11    18 ar  
    30    12    14 1   
    31    12    15 ar  
    32    14    32 1   
    33    14    33 1   
    34    15    16 ar  
    35    15    34 1   
    36    16    17 ar  
    37    16    35 1   
    38    17    18 ar  
    39    17    36 1   
    40    18    37 1   
    41    38    39 1   
    42    38    42 2   
    43    39    40 1   
    44    39    47 1   
    45    40    41 1   
    46    40    48 1   
    47    40    49 1   
    48    41    43 2   
    49    41    46 1   
    50    43    44 1   
    51    43    50 1   
    52    44    45 2   
    53    44    51 1   
    54    45    46 1   
    55    45    52 1   
@<TRIPOS>SUBSTRUCTURE
     1 6S5         1 TEMP              0 ****  ****    0 ROOT
