@<TRIPOS>MOLECULE
6S5
   52    55     1     0     0
SMALL
abcg2


@<TRIPOS>ATOM
      1 C6           1.7410    -0.1410    -0.8520 c6         1 6S5      -0.139700
      2 N1          -0.8520    -1.3560    -1.2680 n          1 6S5      -0.410800
      3 C7           0.4570     0.6900    -0.9250 c6         1 6S5      -0.090400
      4 C8          -0.5980    -0.0160    -1.7680 c6         1 6S5       0.097500
      5 N2          -4.4270    -1.6210    -0.6630 n7         1 6S5      -0.835400
      6 C9           0.3430    -2.1850    -1.2520 c6         1 6S5       0.097500
      7 C10          1.4200    -1.5580    -0.3770 c6         1 6S5      -0.090400
      8 C11         -2.0090    -1.8120    -0.7440 c          1 6S5       0.615100
      9 C12         -3.1960    -0.8580    -0.6680 c6         1 6S5       0.094500
     10 C13         -3.0570     0.0190     0.5840 c6         1 6S5      -0.069100
     11 C14         -4.3250     0.7790     0.8760 ca         1 6S5      -0.078300
     12 C15         -5.5330     0.4060     0.2870 ca         1 6S5      -0.115300
     13 O2          -2.1230    -2.9450    -0.2930 o          1 6S5      -0.596100
     14 C16         -5.5810    -0.7450    -0.6910 c6         1 6S5       0.198100
     15 C17         -6.6900     1.1230     0.5840 ca         1 6S5      -0.102000
     16 C18         -6.6600     2.1960     1.4600 ca         1 6S5      -0.108000
     17 C19         -5.4570     2.5670     2.0500 ca         1 6S5      -0.107000
     18 C20         -4.3020     1.8600     1.7560 ca         1 6S5      -0.106000
     19 H1           2.1600    -0.2050    -1.8630 hc         1 6S5       0.048700
     20 H3           0.0680     0.8610     0.0830 hc         1 6S5       0.062700
     21 H4           0.6620     1.6690    -1.3640 hc         1 6S5       0.062700
     22 H5          -0.2470    -0.0970    -2.8020 h1         1 6S5       0.056700
     23 H6          -1.5070     0.5770    -1.7950 h1         1 6S5       0.056700
     24 H7          -4.4600    -2.2060     0.1640 hn         1 6S5       0.433000
     25 H9           0.0910    -3.1800    -0.8960 h1         1 6S5       0.056700
     26 H10          0.7070    -2.2870    -2.2800 h1         1 6S5       0.056700
     27 H11          2.3140    -2.1840    -0.4110 hc         1 6S5       0.062700
     28 H12          1.0770    -1.5350     0.6600 hc         1 6S5       0.062700
     29 H13         -3.2350    -0.2170    -1.5540 h1         1 6S5       0.072700
     30 H14         -2.8170    -0.6220     1.4390 hc         1 6S5       0.062200
     31 H15         -2.2240     0.7190     0.4860 hc         1 6S5       0.062200
     32 H16         -5.6890    -0.3420    -1.7040 h1         1 6S5       0.061700
     33 H17         -6.4740    -1.3480    -0.5130 h1         1 6S5       0.061700
     34 H18         -7.6280     0.8330     0.1230 ha         1 6S5       0.112000
     35 H19         -7.5680     2.7410     1.6830 ha         1 6S5       0.114000
     36 H20         -5.4200     3.4040     2.7360 ha         1 6S5       0.114000
     37 H21         -3.3630     2.1500     2.2130 ha         1 6S5       0.113000
     38 C22          2.7400     0.5300     0.0710 c          1 6S5       0.605100
     39 N3           3.8050     1.0770    -0.5400 ns         1 6S5      -0.504900
     40 C5           4.8800     1.7430     0.1600 c3         1 6S5       0.076700
     41 C4           6.0690     0.8710     0.3570 cc         1 6S5       0.091300
     42 O1           2.5570     0.5880     1.2790 o          1 6S5      -0.591100
     43 C3           7.3570     0.9770    -0.0520 cd         1 6S5      -0.175000
     44 C2           8.0340    -0.1790     0.4490 cd         1 6S5      -0.191000
     45 C1           7.1000    -0.8940     1.1160 cc         1 6S5       0.127900
     46 O3           5.9060    -0.2650     1.0690 os         1 6S5      -0.222000
     47 H2           3.9090     0.9520    -1.5340 hn         1 6S5       0.313500
     48 H8           5.1900     2.6180    -0.4100 h1         1 6S5       0.074700
     49 H22          4.4980     2.1030     1.1160 h1         1 6S5       0.074700
     50 H23          7.7740     1.7790    -0.6390 ha         1 6S5       0.139000
     51 H24          9.0720    -0.4390     0.3220 ha         1 6S5       0.143000
     52 H25          7.1330    -1.8290     1.6510 h4         1 6S5       0.054100
@<TRIPOS>BOND
     1     1     3 1   
     2     1     7 1   
     3     1    19 1   
     4     1    38 1   
     5     2     4 1   
     6     2     6 1   
     7     2     8 1   
     8     3     4 1   
     9     3    20 1   
    10     3    21 1   
    11     4    22 1   
    12     4    23 1   
    13     5     9 1   
    14     5    14 1   
    15     5    24 1   
    16     6     7 1   
    17     6    25 1   
    18     6    26 1   
    19     7    27 1   
    20     7    28 1   
    21     8     9 1   
    22     8    13 2   
    23     9    10 1   
    24     9    29 1   
    25    10    11 1   
    26    10    30 1   
    27    10    31 1   
    28    11    12 ar  
    29    11    18 ar  
    30    12    14 1   
    31    12    15 ar  
    32    14    32 1   
    33    14    33 1   
    34    15    16 ar  
    35    15    34 1   
    36    16    17 ar  
    37    16    35 1   
    38    17    18 ar  
    39    17    36 1   
    40    18    37 1   
    41    38    39 1   
    42    38    42 2   
    43    39    40 1   
    44    39    47 1   
    45    40    41 1   
    46    40    48 1   
    47    40    49 1   
    48    41    43 2   
    49    41    46 1   
    50    43    44 1   
    51    43    50 1   
    52    44    45 2   
    53    44    51 1   
    54    45    46 1   
    55    45    52 1   
@<TRIPOS>SUBSTRUCTURE
     1 6S5         1 TEMP              0 ****  ****    0 ROOT
