@<TRIPOS>MOLECULE
6S6
   52    52     1     0     0
SMALL
No Charge or Current Charge


@<TRIPOS>ATOM
      1 C1           3.5510     1.3140    -1.3520 c6         1 6S6       0.175300
      2 C2           4.0370     2.0470    -0.0600 c6         1 6S6       0.137300
      3 C3           5.1420     1.2320     0.6780 c6         1 6S6       0.094300
      4 C4           4.6430    -0.2060     1.0250 c6         1 6S6       0.176300
      5 C5           4.2120    -0.9420    -0.2730 c6         1 6S6      -0.198700
      6 C6           3.0960    -0.1550    -1.0190 c6         1 6S6       0.198500
      7 C8           3.8130    -2.4070    -0.0390 c          1 6S6       0.728000
      8 C15         -0.6000    -0.0480     0.0450 c3         1 6S6      -0.079400
      9 C16         -1.9660     0.1700    -0.6420 c3         1 6S6      -0.073400
     10 C17         -3.1570     0.0860     0.3380 c3         1 6S6      -0.074400
     11 C18         -4.5220     0.3040    -0.3500 c3         1 6S6      -0.074400
     12 C19         -5.7130     0.2200     0.6290 c3         1 6S6      -0.074400
     13 C20         -7.0790     0.4380    -0.0590 c3         1 6S6      -0.098400
     14 C21         -8.2680     0.3530     0.9220 c3         1 6S6       0.157800
     15 N7           1.8490    -0.1780    -0.2190 n7         1 6S6      -0.902400
     16 O9           4.4610    -3.2770    -0.6010 o          1 6S6      -0.728000
     17 O10          2.8710    -2.6380     0.7060 o          1 6S6      -0.728000
     18 O11          5.6950    -0.9200     1.6970 oh         1 6S6      -0.701000
     19 O12          5.5710     1.9240     1.8680 oh         1 6S6      -0.753000
     20 O13          4.5570     3.3550    -0.3730 oh         1 6S6      -0.752000
     21 N22         -9.5330     0.5840     0.2110 n2         1 6S6      -0.438200
     22 N23        -10.1400    -0.4260    -0.1810 n1         1 6S6       0.231000
     23 N24        -10.6820    -1.2980    -0.6720 n1         1 6S6      -0.092000
     24 O1           4.5930     1.3520    -2.3450 oh         1 6S6      -0.723000
     25 H1           2.6800     1.8620    -1.7400 h1         1 6S6       0.029700
     26 H2           3.1730     2.1390     0.6180 h1         1 6S6       0.070700
     27 H3           5.9990     1.1260    -0.0050 h1         1 6S6       0.048700
     28 H4           3.7690    -0.1190     1.6910 h1         1 6S6       0.060700
     29 H5           5.0830    -0.9740    -0.9410 hc         1 6S6       0.068700
     30 H6           2.9030    -0.6790    -1.9680 h1         1 6S6       0.047700
     31 H7           0.4590    -0.7230    -1.7190 h1         1 6S6       0.014700
     32 H8           0.5800     1.0240    -1.4190 h1         1 6S6       0.014700
     33 H9          -0.5950    -1.0310     0.5320 hc         1 6S6       0.046200
     34 H10         -0.4690     0.7040     0.8330 hc         1 6S6       0.046200
     35 H11         -1.9700     1.1520    -1.1310 hc         1 6S6       0.033200
     36 H12         -2.0950    -0.5810    -1.4320 hc         1 6S6       0.033200
     37 H13         -3.1530    -0.8970     0.8260 hc         1 6S6       0.037700
     38 H14         -3.0270     0.8370     1.1270 hc         1 6S6       0.037700
     39 H15         -4.5260     1.2860    -0.8390 hc         1 6S6       0.037200
     40 H16         -4.6520    -0.4470    -1.1400 hc         1 6S6       0.037200
     41 H17         -5.7090    -0.7620     1.1180 hc         1 6S6       0.039200
     42 H18         -5.5840     0.9710     1.4190 hc         1 6S6       0.039200
     43 H19         -7.0840     1.4210    -0.5470 hc         1 6S6       0.046700
     44 H20         -7.2070    -0.3140    -0.8490 hc         1 6S6       0.046700
     45 H21         -8.2600    -0.6300     1.4140 h1         1 6S6       0.059200
     46 H22         -8.1360     1.1100     1.7060 h1         1 6S6       0.059200
     47 H23          1.8060    -1.1180     0.2170 hn         1 6S6       0.480000
     48 H26          5.2980    -1.7530     2.0400 ho         1 6S6       0.476000
     49 H27          6.0200     1.2280     2.4060 ho         1 6S6       0.497000
     50 H28          5.1080     3.5770     0.4180 ho         1 6S6       0.510000
     51 H30          5.0120     2.2340    -2.1960 ho         1 6S6       0.501000
     52 C14          0.5840     0.0380    -0.9370 c3         1 6S6       0.174800
@<TRIPOS>BOND
     1     1     2 1   
     2     1     6 1   
     3     1    24 1   
     4     1    25 1   
     5     2     3 1   
     6     2    20 1   
     7     2    26 1   
     8     3     4 1   
     9     3    19 1   
    10     3    27 1   
    11     4     5 1   
    12     4    18 1   
    13     4    28 1   
    14     5     6 1   
    15     5     7 1   
    16     5    29 1   
    17     6    15 1   
    18     6    30 1   
    19     7    16 1   
    20     7    17 1   
    21     8     9 1   
    22     8    33 1   
    23     8    34 1   
    24     8    52 1   
    25     9    10 1   
    26     9    35 1   
    27     9    36 1   
    28    10    11 1   
    29    10    37 1   
    30    10    38 1   
    31    11    12 1   
    32    11    39 1   
    33    11    40 1   
    34    12    13 1   
    35    12    41 1   
    36    12    42 1   
    37    13    14 1   
    38    13    43 1   
    39    13    44 1   
    40    14    21 1   
    41    14    45 1   
    42    14    46 1   
    43    15    47 1   
    44    15    52 1   
    45    18    48 1   
    46    19    49 1   
    47    20    50 1   
    48    21    22 1   
    49    22    23 3   
    50    24    51 1   
    51    31    52 1   
    52    32    52 1   
@<TRIPOS>SUBSTRUCTURE
     1 6S6         1 TEMP              0 ****  ****    0 ROOT
