@<TRIPOS>MOLECULE
6S6
   52    52     1     0     0
SMALL
bcc


@<TRIPOS>ATOM
      1 C1           3.3890     1.3050    -1.1940 c6         1 6S6       0.152100
      2 C2           3.8670     1.9060     0.1220 c6         1 6S6       0.114100
      3 C3           5.0250     1.1120     0.7110 c6         1 6S6       0.071100
      4 C4           4.6240    -0.3450     0.9210 c6         1 6S6       0.153100
      5 C5           4.1840    -0.9560    -0.4020 c6         1 6S6      -0.198700
      6 C6           3.0050    -0.1660    -1.0000 c6         1 6S6       0.198500
      7 C8           3.8540    -2.4560    -0.2610 c          1 6S6       0.938600
      8 C15         -0.6050    -0.0870     0.1030 c3         1 6S6      -0.079400
      9 C16         -1.9460     0.0710    -0.6020 c3         1 6S6      -0.073400
     10 C17         -3.1280     0.0870     0.3600 c3         1 6S6      -0.074400
     11 C18         -4.4690     0.2510    -0.3440 c3         1 6S6      -0.074400
     12 C19         -5.6490     0.2720     0.6190 c3         1 6S6      -0.074400
     13 C20         -6.9880     0.4320    -0.0910 c3         1 6S6      -0.098400
     14 C21         -8.1460     0.4560     0.8950 c3         1 6S6       0.157800
     15 N7           1.8260    -0.2350    -0.1520 n7         1 6S6      -0.847200
     16 O9           4.4180    -3.2400    -1.0460 o          1 6S6      -0.833300
     17 O10          3.0230    -2.7710     0.6220 o          1 6S6      -0.833300
     18 O11          5.7140    -1.1050     1.4070 oh         1 6S6      -0.578800
     19 O12          5.3840     1.7390     1.9330 oh         1 6S6      -0.630800
     20 O13          4.2310     3.2490    -0.1260 oh         1 6S6      -0.629800
     21 N22         -9.4490     0.6730     0.2500 n2         1 6S6      -0.438200
     22 N23         -9.8980    -0.2570    -0.3900 n1         1 6S6       0.231000
     23 N24        -10.4010    -1.0580    -1.0010 n1         1 6S6      -0.092000
     24 O1           4.3750     1.3790    -2.2010 oh         1 6S6      -0.600800
     25 H1           2.4930     1.8630    -1.5080 h1         1 6S6       0.029700
     26 H2           3.0220     1.8530     0.8220 h1         1 6S6       0.070700
     27 H3           5.8720     1.1430     0.0110 h1         1 6S6       0.048700
     28 H4           3.7910    -0.3780     1.6350 h1         1 6S6       0.060700
     29 H5           5.0140    -0.8600    -1.1080 hc         1 6S6       0.068700
     30 H6           2.8010    -0.5880    -2.0000 h1         1 6S6       0.047700
     31 H7           0.4240    -0.8670    -1.6230 h1         1 6S6       0.014700
     32 H8           0.5750     0.8660    -1.4060 h1         1 6S6       0.014700
     33 H9          -0.6020    -1.0220     0.6750 hc         1 6S6       0.046200
     34 H10         -0.4710     0.7200     0.8290 hc         1 6S6       0.046200
     35 H11         -1.9430     0.9990    -1.1860 hc         1 6S6       0.033200
     36 H12         -2.0780    -0.7420    -1.3250 hc         1 6S6       0.033200
     37 H13         -3.1340    -0.8410     0.9430 hc         1 6S6       0.037700
     38 H14         -2.9950     0.8980     1.0830 hc         1 6S6       0.037700
     39 H15         -4.4630     1.1780    -0.9280 hc         1 6S6       0.037200
     40 H16         -4.6030    -0.5620    -1.0650 hc         1 6S6       0.037200
     41 H17         -5.6550    -0.6530     1.2060 hc         1 6S6       0.039200
     42 H18         -5.5180     1.0880     1.3380 hc         1 6S6       0.039200
     43 H19         -6.9920     1.3580    -0.6740 hc         1 6S6       0.046700
     44 H20         -7.1220    -0.3890    -0.8020 hc         1 6S6       0.046700
     45 H21         -8.1630    -0.4630     1.4880 h1         1 6S6       0.059200
     46 H22         -8.0290     1.2860     1.5900 h1         1 6S6       0.059200
     47 H23          1.8380    -1.1350     0.3190 hn         1 6S6       0.424800
     48 H26          5.8680    -0.8610     2.3240 ho         1 6S6       0.377000
     49 H27          6.3290     1.6320     2.0730 ho         1 6S6       0.398000
     50 H28          4.6530     3.5900     0.6700 ho         1 6S6       0.411000
     51 H30          4.7150     2.2800    -2.2170 ho         1 6S6       0.402000
     52 C14          0.5720    -0.0830    -0.8610 c3         1 6S6       0.174800
@<TRIPOS>BOND
     1     1     2 1   
     2     1     6 1   
     3     1    24 1   
     4     1    25 1   
     5     2     3 1   
     6     2    20 1   
     7     2    26 1   
     8     3     4 1   
     9     3    19 1   
    10     3    27 1   
    11     4     5 1   
    12     4    18 1   
    13     4    28 1   
    14     5     6 1   
    15     5     7 1   
    16     5    29 1   
    17     6    15 1   
    18     6    30 1   
    19     7    16 1   
    20     7    17 1   
    21     8     9 1   
    22     8    33 1   
    23     8    34 1   
    24     8    52 1   
    25     9    10 1   
    26     9    35 1   
    27     9    36 1   
    28    10    11 1   
    29    10    37 1   
    30    10    38 1   
    31    11    12 1   
    32    11    39 1   
    33    11    40 1   
    34    12    13 1   
    35    12    41 1   
    36    12    42 1   
    37    13    14 1   
    38    13    43 1   
    39    13    44 1   
    40    14    21 1   
    41    14    45 1   
    42    14    46 1   
    43    15    47 1   
    44    15    52 1   
    45    18    48 1   
    46    19    49 1   
    47    20    50 1   
    48    21    22 1   
    49    22    23 3   
    50    24    51 1   
    51    31    52 1   
    52    32    52 1   
@<TRIPOS>SUBSTRUCTURE
     1 6S6         1 TEMP              0 ****  ****    0 ROOT
