@<TRIPOS>MOLECULE
6S7
   47    49     1     0     0
SMALL
No Charge or Current Charge


@<TRIPOS>ATOM
      1 C17          5.5710    -0.8020    -1.4130 c3         1 6S7       0.149600
      2 N16          5.1320    -1.2790    -0.0800 n3         1 6S7      -0.701600
      3 C21         -3.3110    -2.3280     0.3610 c6         1 6S7       0.159800
      4 C14          3.9280     0.9190     0.5800 c3         1 6S7       0.164600
      5 C12         -0.7280     2.5380    -0.5160 ca         1 6S7       0.236900
      6 N11          0.4520     3.2030    -0.3910 nb         1 6S7      -0.619000
      7 C10          1.5480     2.4680    -0.0850 ca         1 6S7       0.212900
      8 C9           1.5100     1.0620     0.1070 ca         1 6S7       0.125100
      9 C8           0.2820     0.3930    -0.0270 ca         1 6S7      -0.175000
     10 C3          -4.6110     0.2750     0.0560 c6         1 6S7      -0.105200
     11 C7          -0.8720     1.1300    -0.3500 ca         1 6S7       0.291000
     12 C4          -3.4070     1.2100    -0.2730 c6         1 6S7       0.209300
     13 C2          -4.7530    -0.7950    -1.0500 c6         1 6S7      -0.072400
     14 C18          5.9880    -2.3750     0.4250 c3         1 6S7       0.149600
     15 C15          4.9630    -0.1860     0.9250 c3         1 6S7       0.165800
     16 O13          2.6280     0.3140     0.4260 os         1 6S7      -0.323100
     17 N5          -2.1240     0.4620    -0.4820 nh         1 6S7      -0.806400
     18 C6          -2.2380    -0.7390    -1.3770 c6         1 6S7       0.209300
     19 C19         -4.4520    -0.4280     1.4380 c6         1 6S7       0.159800
     20 N20         -3.2680    -1.3190     1.4460 n7         1 6S7      -0.837400
     21 C1          -3.4610    -1.6420    -1.0310 c6         1 6S7      -0.105200
     22 H1           5.6670    -1.6430    -2.1130 h1         1 6S7       0.031200
     23 H2           4.8440    -0.1000    -1.8420 h1         1 6S7       0.031200
     24 H3           6.5440    -0.2980    -1.3480 h1         1 6S7       0.031200
     25 H6          -4.1520    -3.0170     0.5290 h1         1 6S7       0.049450
     26 H7           3.9120     1.6540     1.3950 h1         1 6S7       0.037200
     27 H8           4.2290     1.4380    -0.3390 h1         1 6S7       0.037200
     28 H9          -1.5860     3.1590    -0.7680 h4         1 6S7       0.018100
     29 H10          2.4750     3.0310     0.0090 h4         1 6S7       0.020100
     30 H11          0.2310    -0.6790     0.1320 ha         1 6S7       0.135000
     31 H12         -5.5240     0.8850     0.0820 hc         1 6S7       0.058700
     32 H13         -3.6440     1.7870    -1.1780 h1         1 6S7       0.041200
     33 H14         -3.2920     1.9310     0.5500 h1         1 6S7       0.041200
     34 H15         -5.6340    -1.4270    -0.8680 hc         1 6S7       0.046200
     35 H16         -4.8940    -0.3230    -2.0320 hc         1 6S7       0.046200
     36 H17          7.0130    -2.0230     0.6000 h1         1 6S7       0.031200
     37 H18          5.5940    -2.7720     1.3710 h1         1 6S7       0.031200
     38 H19          6.0260    -3.2030    -0.2960 h1         1 6S7       0.031200
     39 H20          4.6610    -0.6220     1.8870 h1         1 6S7       0.041700
     40 H21          5.9310     0.3040     1.0960 h1         1 6S7       0.041700
     41 H22         -2.3330    -0.4020    -2.4200 h1         1 6S7       0.041200
     42 H23         -1.3280    -1.3530    -1.3260 h1         1 6S7       0.041200
     43 H24         -4.3430     0.3330     2.2260 h1         1 6S7       0.049450
     44 H25         -5.3580    -1.0110     1.6650 h1         1 6S7       0.049450
     45 H26         -2.4970    -0.6930     1.1600 hn         1 6S7       0.420000
     46 H28         -3.5370    -2.4270    -1.7950 hc         1 6S7       0.058700
     47 H5          -2.3860    -2.9240     0.3790 h1         1 6S7       0.049450
@<TRIPOS>BOND
     1     1     2 1   
     2     1    22 1   
     3     1    23 1   
     4     1    24 1   
     5     2    14 1   
     6     2    15 1   
     7     3    20 1   
     8     3    21 1   
     9     3    25 1   
    10     3    47 1   
    11     4    15 1   
    12     4    16 1   
    13     4    26 1   
    14     4    27 1   
    15     5     6 ar  
    16     5    11 ar  
    17     5    28 1   
    18     6     7 ar  
    19     7     8 ar  
    20     7    29 1   
    21     8     9 ar  
    22     8    16 1   
    23     9    11 ar  
    24     9    30 1   
    25    10    12 1   
    26    10    13 1   
    27    10    19 1   
    28    10    31 1   
    29    11    17 1   
    30    12    17 1   
    31    12    32 1   
    32    12    33 1   
    33    13    21 1   
    34    13    34 1   
    35    13    35 1   
    36    14    36 1   
    37    14    37 1   
    38    14    38 1   
    39    15    39 1   
    40    15    40 1   
    41    17    18 1   
    42    18    21 1   
    43    18    41 1   
    44    18    42 1   
    45    19    20 1   
    46    19    43 1   
    47    19    44 1   
    48    20    45 1   
    49    21    46 1   
@<TRIPOS>SUBSTRUCTURE
     1 6S7         1 TEMP              0 ****  ****    0 ROOT
