@<TRIPOS>MOLECULE
6S7
   47    49     1     0     0
SMALL
abcg2


@<TRIPOS>ATOM
      1 C17          5.6610    -0.7110    -1.3960 c3         1 6S7       0.149600
      2 N16          5.0860    -1.1970    -0.1610 n3         1 6S7      -0.701600
      3 C21         -3.4260    -2.2880     0.4220 c6         1 6S7       0.159800
      4 C14          3.8710     0.8890     0.4390 c3         1 6S7       0.164600
      5 C12         -0.7500     2.4130    -0.3300 ca         1 6S7       0.236900
      6 N11          0.3990     3.0520    -0.2030 nb         1 6S7      -0.619000
      7 C10          1.5260     2.3770    -0.0350 ca         1 6S7       0.212900
      8 C9           1.5340     0.9820     0.0170 ca         1 6S7       0.125100
      9 C8           0.3320     0.3020    -0.1230 ca         1 6S7      -0.175000
     10 C3          -4.5250     0.3310    -0.0260 c6         1 6S7      -0.105200
     11 C7          -0.8600     1.0100    -0.2940 ca         1 6S7       0.291000
     12 C4          -3.2840     1.1730    -0.3080 c6         1 6S7       0.209300
     13 C2          -4.6580    -0.7470    -1.0940 c6         1 6S7      -0.072400
     14 C18          5.8780    -2.2780     0.3850 c3         1 6S7       0.149600
     15 C15          4.9000    -0.1500     0.8230 c3         1 6S7       0.165800
     16 O13          2.6320     0.2330     0.2140 os         1 6S7      -0.323100
     17 N5          -2.0790     0.3610    -0.3800 nh         1 6S7      -0.806400
     18 C6          -2.1780    -0.8110    -1.2470 c6         1 6S7       0.209300
     19 C19         -4.4990    -0.3330     1.3580 c6         1 6S7       0.159800
     20 N20         -3.4790    -1.3550     1.5370 n7         1 6S7      -0.837400
     21 C1          -3.4280    -1.6390    -0.9680 c6         1 6S7      -0.105200
     22 H1           5.7550    -1.5340    -2.1060 h1         1 6S7       0.031200
     23 H2           5.0220     0.0400    -1.8610 h1         1 6S7       0.031200
     24 H3           6.6610    -0.2670    -1.2650 h1         1 6S7       0.031200
     25 H6          -4.2960    -2.9530     0.4830 h1         1 6S7       0.049450
     26 H7           3.7860     1.6080     1.2600 h1         1 6S7       0.037200
     27 H8           4.1730     1.4480    -0.4530 h1         1 6S7       0.037200
     28 H9          -1.6230     3.0360    -0.4730 h4         1 6S7       0.018100
     29 H10          2.4320     2.9630     0.0550 h4         1 6S7       0.020100
     30 H11          0.3400    -0.7790    -0.0610 ha         1 6S7       0.135000
     31 H12         -5.3830     1.0100    -0.0600 hc         1 6S7       0.058700
     32 H13         -3.4430     1.7420    -1.2380 h1         1 6S7       0.041200
     33 H14         -3.1610     1.9050     0.4930 h1         1 6S7       0.041200
     34 H15         -5.5740    -1.3280    -0.9490 hc         1 6S7       0.046200
     35 H16         -4.7150    -0.3010    -2.0920 hc         1 6S7       0.046200
     36 H17          6.9030    -1.9770     0.6520 h1         1 6S7       0.031200
     37 H18          5.4030    -2.6760     1.2830 h1         1 6S7       0.031200
     38 H19          5.9500    -3.0900    -0.3410 h1         1 6S7       0.031200
     39 H20          4.5870    -0.6140     1.7620 h1         1 6S7       0.041700
     40 H21          5.8370     0.3910     1.0430 h1         1 6S7       0.041700
     41 H22         -2.1870    -0.4980    -2.3020 h1         1 6S7       0.041200
     42 H23         -1.2970    -1.4390    -1.1160 h1         1 6S7       0.041200
     43 H24         -4.3660     0.4230     2.1360 h1         1 6S7       0.049450
     44 H25         -5.4820    -0.7860     1.5330 h1         1 6S7       0.049450
     45 H26         -2.5810    -0.8950     1.6050 hn         1 6S7       0.420000
     46 H28         -3.4560    -2.4360    -1.7170 hc         1 6S7       0.058700
     47 H5          -2.5430    -2.9210     0.5440 h1         1 6S7       0.049450
@<TRIPOS>BOND
     1     1     2 1   
     2     1    22 1   
     3     1    23 1   
     4     1    24 1   
     5     2    14 1   
     6     2    15 1   
     7     3    20 1   
     8     3    21 1   
     9     3    25 1   
    10     3    47 1   
    11     4    15 1   
    12     4    16 1   
    13     4    26 1   
    14     4    27 1   
    15     5     6 ar  
    16     5    11 ar  
    17     5    28 1   
    18     6     7 ar  
    19     7     8 ar  
    20     7    29 1   
    21     8     9 ar  
    22     8    16 1   
    23     9    11 ar  
    24     9    30 1   
    25    10    12 1   
    26    10    13 1   
    27    10    19 1   
    28    10    31 1   
    29    11    17 1   
    30    12    17 1   
    31    12    32 1   
    32    12    33 1   
    33    13    21 1   
    34    13    34 1   
    35    13    35 1   
    36    14    36 1   
    37    14    37 1   
    38    14    38 1   
    39    15    39 1   
    40    15    40 1   
    41    17    18 1   
    42    18    21 1   
    43    18    41 1   
    44    18    42 1   
    45    19    20 1   
    46    19    43 1   
    47    19    44 1   
    48    20    45 1   
    49    21    46 1   
@<TRIPOS>SUBSTRUCTURE
     1 6S7         1 TEMP              0 ****  ****    0 ROOT
