@<TRIPOS>MOLECULE
6S8
  130   130     1     0     0
SMALL
abcg2


@<TRIPOS>ATOM
      1 C1           3.8940     3.9090    -0.9940 c3         1 6S8       0.157600
      2 C2           3.4390     2.5180    -0.5800 c3         1 6S8       0.079700
      3 N2           2.0230     2.5230    -0.2950 ns         1 6S8      -0.506900
      4 C3           4.2250     1.9720     0.6380 c3         1 6S8       0.195500
      5 O3           5.6090     2.0790     0.4330 oh         1 6S8      -0.639000
      6 C4           3.7850     0.5780     0.9900 c2         1 6S8      -0.266200
      7 C5           4.5960    -0.4430     1.2500 c2         1 6S8      -0.197200
      8 C6           4.1370    -1.8160     1.6250 c3         1 6S8      -0.044200
      9 C7           4.7660    -2.9110     0.7640 c3         1 6S8      -0.072400
     10 C8           4.3350    -4.3080     1.1890 c3         1 6S8      -0.075400
     11 C9           5.0190    -5.4200     0.4040 c3         1 6S8      -0.074400
     12 C10          4.5790    -6.8130     0.8370 c3         1 6S8      -0.074400
     13 C11          5.2880    -7.9340     0.0870 c3         1 6S8      -0.074400
     14 C12          4.8440    -9.3230     0.5270 c3         1 6S8      -0.074400
     15 C13          5.5620   -10.4480    -0.2070 c3         1 6S8      -0.074400
     16 C14          5.1150   -11.8360     0.2360 c3         1 6S8      -0.074400
     17 C15          5.8360   -12.9640    -0.4910 c3         1 6S8      -0.074400
     18 C16          5.3880   -14.3500    -0.0450 c3         1 6S8      -0.075400
     19 C17          6.1090   -15.4810    -0.7680 c3         1 6S8      -0.074400
     20 C18          5.6530   -16.8600    -0.3140 c3         1 6S8      -0.088100
     21 C1A          3.7630     6.1330    -0.1980 c6         1 6S8       0.373300
     22 O1A          3.6220     4.7910     0.0800 os         1 6S8      -0.462000
     23 C2A          3.0280     6.9270     0.8810 c6         1 6S8       0.104300
     24 O2A          1.6400     6.6970     0.8370 oh         1 6S8      -0.726000
     25 C3A          3.2530     8.4140     0.6390 c6         1 6S8       0.140300
     26 O3A          2.7070     9.2080     1.6620 oh         1 6S8      -0.667000
     27 C4A          4.7460     8.7200     0.5550 c6         1 6S8       0.145300
     28 O4A          5.3900     8.5150     1.7880 oh         1 6S8      -0.708000
     29 O5A          7.3360     7.3010    -1.7310 oh         1 6S8      -0.717000
     30 C5M          5.3780     7.8090    -0.4910 c6         1 6S8       0.183300
     31 C6A          6.8740     8.0110    -0.6060 c3         1 6S8       0.172600
     32 O6A          5.1290     6.4500    -0.1920 os         1 6S8      -0.451000
     33 CAA          1.0990     1.7980    -0.9560 c          1 6S8       0.602100
     34 OAA          1.3670     1.0820    -1.9100 o          1 6S8      -0.603100
     35 CAB         -0.3040     1.9120    -0.4010 c3         1 6S8      -0.156400
     36 CAC         -1.3880     1.8970    -1.4690 c3         1 6S8      -0.065400
     37 CAD         -2.7810     1.9960    -0.8600 c3         1 6S8      -0.076400
     38 CAE         -3.8930     1.9820    -1.9010 c3         1 6S8      -0.074400
     39 CAF         -5.2820     2.1140    -1.2890 c3         1 6S8      -0.075400
     40 CAG         -6.3990     2.0760    -2.3240 c3         1 6S8      -0.073400
     41 CAH         -7.7880     2.2570    -1.7100 c3         1 6S8      -0.043200
     42 CAI         -8.8690     2.2190    -2.7440 c2         1 6S8      -0.216200
     43 CAJ         -9.9000     1.3780    -2.8130 c2         1 6S8      -0.215200
     44 CAK        -10.2680     0.2970    -1.8440 c3         1 6S8      -0.043200
     45 CAL        -11.6250     0.5590    -1.1890 c3         1 6S8      -0.073400
     46 CAM        -12.0310    -0.5250    -0.2000 c3         1 6S8      -0.075400
     47 CAN        -13.3900    -0.2680     0.4390 c3         1 6S8      -0.074400
     48 CAO        -13.7860    -1.3220     1.4650 c3         1 6S8      -0.074400
     49 CAP        -15.1480    -1.0610     2.0970 c3         1 6S8      -0.075400
     50 CAQ        -15.5390    -2.0960     3.1440 c3         1 6S8      -0.074400
     51 CAR        -16.9010    -1.8220     3.7660 c3         1 6S8      -0.088100
     52 H1           4.9570     3.9040    -1.2490 h1         1 6S8       0.052200
     53 H2           3.3370     4.2160    -1.8870 h1         1 6S8       0.052200
     54 H3           3.6030     1.8510    -1.4290 h1         1 6S8       0.090700
     55 H4           1.7110     3.1060     0.4650 hn         1 6S8       0.314500
     56 H5           4.0030     2.6220     1.4930 h1         1 6S8       0.088700
     57 H6           5.8620     1.4670    -0.2680 ho         1 6S8       0.440000
     58 H7           2.7120     0.4240     1.0580 ha         1 6S8       0.176000
     59 H8           5.6740    -0.3020     1.2120 ha         1 6S8       0.173000
     60 H9           4.4040    -2.0060     2.6710 hc         1 6S8       0.045700
     61 H10          3.0460    -1.8770     1.5690 hc         1 6S8       0.045700
     62 H11          4.5060    -2.7470    -0.2860 hc         1 6S8       0.041200
     63 H12          5.8570    -2.8330     0.8250 hc         1 6S8       0.041200
     64 H13          4.5440    -4.4400     2.2560 hc         1 6S8       0.037200
     65 H14          3.2480    -4.4010     1.0810 hc         1 6S8       0.037200
     66 H15          4.8190    -5.2920    -0.6660 hc         1 6S8       0.038200
     67 H16          6.1050    -5.3290     0.5220 hc         1 6S8       0.038200
     68 H17          4.7570    -6.9290     1.9120 hc         1 6S8       0.037200
     69 H18          3.4970    -6.9100     0.6980 hc         1 6S8       0.037200
     70 H19          5.1140    -7.8200    -0.9880 hc         1 6S8       0.037200
     71 H20          6.3700    -7.8370     0.2300 hc         1 6S8       0.037200
     72 H21          5.0090    -9.4310     1.6050 hc         1 6S8       0.037200
     73 H22          3.7630    -9.4220     0.3760 hc         1 6S8       0.037200
     74 H23          5.3980   -10.3420    -1.2850 hc         1 6S8       0.037200
     75 H24          6.6420   -10.3500    -0.0550 hc         1 6S8       0.037200
     76 H25          5.2750   -11.9400     1.3150 hc         1 6S8       0.036700
     77 H26          4.0350   -11.9360     0.0810 hc         1 6S8       0.036700
     78 H27          5.6760   -12.8610    -1.5700 hc         1 6S8       0.036700
     79 H28          6.9160   -12.8650    -0.3350 hc         1 6S8       0.036700
     80 H29          5.5450   -14.4520     1.0350 hc         1 6S8       0.036700
     81 H30          4.3080   -14.4500    -0.2030 hc         1 6S8       0.036700
     82 H31          5.9510   -15.3790    -1.8470 hc         1 6S8       0.036700
     83 H32          7.1880   -15.3800    -0.6100 hc         1 6S8       0.036700
     84 H33          4.5850   -17.0000    -0.4920 hc         1 6S8       0.031367
     85 H34          6.1820   -17.6540    -0.8430 hc         1 6S8       0.031367
     86 H35          5.8290   -17.0010     0.7540 hc         1 6S8       0.031367
     87 H36          3.3300     6.3760    -1.1880 h2         1 6S8       0.029700
     88 H37          3.4500     6.6550     1.8580 h1         1 6S8       0.076700
     89 H38          1.4570     5.8460     1.2460 ho         1 6S8       0.517000
     90 H39          2.8070     8.6710    -0.3350 h1         1 6S8       0.048700
     91 H40          1.7980     8.9300     1.8150 ho         1 6S8       0.469000
     92 H41          4.8660     9.7580     0.2120 h1         1 6S8       0.050700
     93 H42          4.9180     9.0210     2.4580 ho         1 6S8       0.521000
     94 H43          8.2880     7.4200    -1.7860 ho         1 6S8       0.506000
     95 H44          4.9220     8.0740    -1.4590 h1         1 6S8       0.046700
     96 H45          7.3660     7.6780     0.3150 h1         1 6S8       0.039200
     97 H46          7.0610     9.0880    -0.7030 h1         1 6S8       0.039200
     98 H47         -0.4480     1.0650     0.2790 hc         1 6S8       0.054200
     99 H48         -0.4010     2.8090     0.2170 hc         1 6S8       0.054200
    100 H49         -1.2350     2.7310    -2.1610 hc         1 6S8       0.055200
    101 H50         -1.3100     0.9840    -2.0630 hc         1 6S8       0.055200
    102 H51         -2.9290     1.1670    -0.1590 hc         1 6S8       0.035200
    103 H52         -2.8540     2.9120    -0.2640 hc         1 6S8       0.035200
    104 H53         -3.7340     2.7970    -2.6150 hc         1 6S8       0.040700
    105 H54         -3.8370     1.0550    -2.4820 hc         1 6S8       0.040700
    106 H55         -5.4370     1.3120    -0.5590 hc         1 6S8       0.036700
    107 H56         -5.3410     3.0520    -0.7240 hc         1 6S8       0.036700
    108 H57         -6.2310     2.8580    -3.0720 hc         1 6S8       0.040700
    109 H58         -6.3640     1.1240    -2.8640 hc         1 6S8       0.040700
    110 H59         -7.9500     1.4950    -0.9450 hc         1 6S8       0.044200
    111 H60         -7.8160     3.2230    -1.1920 hc         1 6S8       0.044200
    112 H61         -8.7750     2.9620    -3.5320 ha         1 6S8       0.165000
    113 H62        -10.5860     1.4920    -3.6490 ha         1 6S8       0.165000
    114 H63        -10.3140    -0.6620    -2.3730 hc         1 6S8       0.044200
    115 H64         -9.5070     0.1830    -1.0680 hc         1 6S8       0.044200
    116 H65        -11.5960     1.5260    -0.6770 hc         1 6S8       0.039200
    117 H66        -12.3910     0.6500    -1.9670 hc         1 6S8       0.039200
    118 H67        -12.0440    -1.4970    -0.7060 hc         1 6S8       0.037200
    119 H68        -11.2700    -0.6020     0.5840 hc         1 6S8       0.037200
    120 H69        -13.3840     0.7170     0.9180 hc         1 6S8       0.037700
    121 H70        -14.1550    -0.2180    -0.3450 hc         1 6S8       0.037700
    122 H71        -13.7890    -2.3100     0.9920 hc         1 6S8       0.036700
    123 H72        -13.0240    -1.3660     2.2510 hc         1 6S8       0.036700
    124 H73        -15.1490    -0.0650     2.5560 hc         1 6S8       0.036700
    125 H74        -15.9130    -1.0320     1.3130 hc         1 6S8       0.036700
    126 H75        -15.5370    -3.0910     2.6880 hc         1 6S8       0.036700
    127 H76        -14.7760    -2.1230     3.9290 hc         1 6S8       0.036700
    128 H77        -16.9230    -0.8410     4.2450 hc         1 6S8       0.031367
    129 H78        -17.6890    -1.8360     3.0120 hc         1 6S8       0.031367
    130 H79        -17.1550    -2.5640     4.5240 hc         1 6S8       0.031367
@<TRIPOS>BOND
     1     1     2 1   
     2     1    22 1   
     3     1    52 1   
     4     1    53 1   
     5     2     3 1   
     6     2     4 1   
     7     2    54 1   
     8     3    33 1   
     9     3    55 1   
    10     4     5 1   
    11     4     6 1   
    12     4    56 1   
    13     5    57 1   
    14     6     7 2   
    15     6    58 1   
    16     7     8 1   
    17     7    59 1   
    18     8     9 1   
    19     8    60 1   
    20     8    61 1   
    21     9    10 1   
    22     9    62 1   
    23     9    63 1   
    24    10    11 1   
    25    10    64 1   
    26    10    65 1   
    27    11    12 1   
    28    11    66 1   
    29    11    67 1   
    30    12    13 1   
    31    12    68 1   
    32    12    69 1   
    33    13    14 1   
    34    13    70 1   
    35    13    71 1   
    36    14    15 1   
    37    14    72 1   
    38    14    73 1   
    39    15    16 1   
    40    15    74 1   
    41    15    75 1   
    42    16    17 1   
    43    16    76 1   
    44    16    77 1   
    45    17    18 1   
    46    17    78 1   
    47    17    79 1   
    48    18    19 1   
    49    18    80 1   
    50    18    81 1   
    51    19    20 1   
    52    19    82 1   
    53    19    83 1   
    54    20    84 1   
    55    20    85 1   
    56    20    86 1   
    57    21    22 1   
    58    21    23 1   
    59    21    32 1   
    60    21    87 1   
    61    23    24 1   
    62    23    25 1   
    63    23    88 1   
    64    24    89 1   
    65    25    26 1   
    66    25    27 1   
    67    25    90 1   
    68    26    91 1   
    69    27    28 1   
    70    27    30 1   
    71    27    92 1   
    72    28    93 1   
    73    29    31 1   
    74    29    94 1   
    75    30    31 1   
    76    30    32 1   
    77    30    95 1   
    78    31    96 1   
    79    31    97 1   
    80    33    34 2   
    81    33    35 1   
    82    35    36 1   
    83    35    98 1   
    84    35    99 1   
    85    36    37 1   
    86    36   100 1   
    87    36   101 1   
    88    37    38 1   
    89    37   102 1   
    90    37   103 1   
    91    38    39 1   
    92    38   104 1   
    93    38   105 1   
    94    39    40 1   
    95    39   106 1   
    96    39   107 1   
    97    40    41 1   
    98    40   108 1   
    99    40   109 1   
   100    41    42 1   
   101    41   110 1   
   102    41   111 1   
   103    42    43 2   
   104    42   112 1   
   105    43    44 1   
   106    43   113 1   
   107    44    45 1   
   108    44   114 1   
   109    44   115 1   
   110    45    46 1   
   111    45   116 1   
   112    45   117 1   
   113    46    47 1   
   114    46   118 1   
   115    46   119 1   
   116    47    48 1   
   117    47   120 1   
   118    47   121 1   
   119    48    49 1   
   120    48   122 1   
   121    48   123 1   
   122    49    50 1   
   123    49   124 1   
   124    49   125 1   
   125    50    51 1   
   126    50   126 1   
   127    50   127 1   
   128    51   128 1   
   129    51   129 1   
   130    51   130 1   
@<TRIPOS>SUBSTRUCTURE
     1 6S8         1 TEMP              0 ****  ****    0 ROOT
