@<TRIPOS>MOLECULE
6S8
  130   130     1     0     0
SMALL
No Charge or Current Charge


@<TRIPOS>ATOM
      1 C1           2.9400     3.8350    -1.9780 c3         1 6S8       0.157600
      2 C2           2.5080     2.3470    -1.9420 c3         1 6S8       0.079700
      3 N2           1.2180     2.2010    -1.2400 ns         1 6S8      -0.506900
      4 C3           3.6010     1.4130    -1.3400 c3         1 6S8       0.195500
      5 O3           4.7720     1.4230    -2.1590 oh         1 6S8      -0.639000
      6 C4           3.1570    -0.0280    -1.2320 c2         1 6S8      -0.266200
      7 C5           3.3160    -0.8150    -0.1560 c2         1 6S8      -0.197200
      8 C6           2.8500    -2.2520    -0.0510 c3         1 6S8      -0.044200
      9 C7           4.0290    -3.2370     0.0860 c3         1 6S8      -0.072400
     10 C8           3.5810    -4.7110     0.1950 c3         1 6S8      -0.075400
     11 C9           4.7650    -5.6930     0.3300 c3         1 6S8      -0.074400
     12 C10          4.3190    -7.1680     0.4410 c3         1 6S8      -0.074400
     13 C11          5.5050    -8.1490     0.5730 c3         1 6S8      -0.074400
     14 C12          5.0610    -9.6240     0.6820 c3         1 6S8      -0.074400
     15 C13          6.2480   -10.6030     0.8130 c3         1 6S8      -0.074400
     16 C14          5.8060   -12.0790     0.9180 c3         1 6S8      -0.074400
     17 C15          6.9940   -13.0570     1.0490 c3         1 6S8      -0.074400
     18 C16          6.5540   -14.5340     1.1520 c3         1 6S8      -0.075400
     19 C17          7.7420   -15.5120     1.2820 c3         1 6S8      -0.074400
     20 C18          7.3030   -16.9850     1.3850 c3         1 6S8      -0.088100
     21 C1A          3.4380     5.7040    -0.4850 c6         1 6S8       0.373300
     22 O1A          3.0520     4.3250    -0.6240 os         1 6S8      -0.462000
     23 C2A          3.4130     6.1260     1.0220 c6         1 6S8       0.104300
     24 O2A          2.1110     5.9420     1.6330 oh         1 6S8      -0.726000
     25 C3A          3.8700     7.6120     1.1450 c6         1 6S8       0.140300
     26 O3A          3.9220     7.9900     2.5320 oh         1 6S8      -0.667000
     27 C4A          5.2580     7.8280     0.4650 c6         1 6S8       0.145300
     28 O4A          6.2750     7.1870     1.2630 oh         1 6S8      -0.708000
     29 O5A          6.5090     6.9420    -3.1200 oh         1 6S8      -0.717000
     30 C5M          5.1970     7.2740    -1.0000 c6         1 6S8       0.183300
     31 C6A          6.5680     7.3850    -1.7460 c3         1 6S8       0.172600
     32 O6A          4.7660     5.8860    -1.0110 os         1 6S8      -0.451000
     33 CAA          0.1460     1.4650    -1.6900 c          1 6S8       0.602100
     34 OAA          0.1610     0.8630    -2.7540 o          1 6S8      -0.603100
     35 CAB         -1.0570     1.4300    -0.7420 c3         1 6S8      -0.156400
     36 CAC         -2.2220     2.2990    -1.2710 c3         1 6S8      -0.065400
     37 CAD         -3.4490     2.2990    -0.3330 c3         1 6S8      -0.076400
     38 CAE         -4.6140     3.1620    -0.8630 c3         1 6S8      -0.074400
     39 CAF         -5.8390     3.1670     0.0780 c3         1 6S8      -0.075400
     40 CAG         -7.0060     4.0270    -0.4550 c3         1 6S8      -0.073400
     41 CAH         -8.2290     4.0390     0.4850 c3         1 6S8      -0.043200
     42 CAI         -9.3640     4.8810    -0.0660 c2         1 6S8      -0.216200
     43 CAJ        -10.4430     4.4410    -0.7380 c2         1 6S8      -0.215200
     44 CAK        -10.7490     3.0070    -1.1300 c3         1 6S8      -0.043200
     45 CAL        -11.6880     2.3180    -0.1190 c3         1 6S8      -0.073400
     46 CAM        -12.0110     0.8540    -0.4900 c3         1 6S8      -0.075400
     47 CAN        -12.9520     0.1680     0.5240 c3         1 6S8      -0.074400
     48 CAO        -13.2750    -1.2970     0.1540 c3         1 6S8      -0.074400
     49 CAP        -14.2180    -1.9820     1.1680 c3         1 6S8      -0.075400
     50 CAQ        -14.5420    -3.4460     0.7990 c3         1 6S8      -0.074400
     51 CAR        -15.4840    -4.1280     1.8090 c3         1 6S8      -0.088100
     52 H1           3.8950     3.9280    -2.5110 h1         1 6S8       0.052200
     53 H2           2.1880     4.4120    -2.5330 h1         1 6S8       0.052200
     54 H3           2.3640     2.0390    -2.9860 h1         1 6S8       0.090700
     55 H4           1.1120     2.6610    -0.3440 hn         1 6S8       0.314500
     56 H5           3.8420     1.7850    -0.3330 h1         1 6S8       0.088700
     57 H6           5.3350     0.6870    -1.8360 ho         1 6S8       0.440000
     58 H7           2.6630    -0.4100    -2.1280 ha         1 6S8       0.176000
     59 H8           3.8030    -0.4340     0.7450 ha         1 6S8       0.173000
     60 H9           2.1840    -2.3610     0.8150 hc         1 6S8       0.045700
     61 H10          2.2580    -2.5260    -0.9340 hc         1 6S8       0.045700
     62 H11          4.6910    -3.1240    -0.7810 hc         1 6S8       0.041200
     63 H12          4.6170    -2.9720     0.9740 hc         1 6S8       0.041200
     64 H13          2.9190    -4.8230     1.0630 hc         1 6S8       0.037200
     65 H14          2.9930    -4.9760    -0.6930 hc         1 6S8       0.037200
     66 H15          5.4260    -5.5810    -0.5380 hc         1 6S8       0.038200
     67 H16          5.3530    -5.4280     1.2170 hc         1 6S8       0.038200
     68 H17          3.6590    -7.2810     1.3100 hc         1 6S8       0.037200
     69 H18          3.7290    -7.4330    -0.4460 hc         1 6S8       0.037200
     70 H19          6.1650    -8.0350    -0.2960 hc         1 6S8       0.037200
     71 H20          6.0940    -7.8840     1.4600 hc         1 6S8       0.037200
     72 H21          4.4010    -9.7390     1.5510 hc         1 6S8       0.037200
     73 H22          4.4710    -9.8890    -0.2050 hc         1 6S8       0.037200
     74 H23          6.9080   -10.4860    -0.0560 hc         1 6S8       0.037200
     75 H24          6.8360   -10.3390     1.7010 hc         1 6S8       0.037200
     76 H25          5.1460   -12.1970     1.7870 hc         1 6S8       0.036700
     77 H26          5.2180   -12.3430     0.0300 hc         1 6S8       0.036700
     78 H27          7.6550   -12.9390     0.1800 hc         1 6S8       0.036700
     79 H28          7.5820   -12.7930     1.9370 hc         1 6S8       0.036700
     80 H29          5.8940   -14.6530     2.0210 hc         1 6S8       0.036700
     81 H30          5.9650   -14.7980     0.2650 hc         1 6S8       0.036700
     82 H31          8.4030   -15.3970     0.4140 hc         1 6S8       0.036700
     83 H32          8.3320   -15.2520     2.1700 hc         1 6S8       0.036700
     84 H33          6.7400   -17.2860     0.4930 hc         1 6S8       0.031367
     85 H34          8.1790   -17.6390     1.4740 hc         1 6S8       0.031367
     86 H35          6.6680   -17.1400     2.2650 hc         1 6S8       0.031367
     87 H36          2.7310     6.3310    -1.0490 h2         1 6S8       0.029700
     88 H37          4.1530     5.4960     1.5380 h1         1 6S8       0.076700
     89 H38          1.8150     5.0350     1.3780 ho         1 6S8       0.517000
     90 H39          3.1330     8.2380     0.6190 h1         1 6S8       0.048700
     91 H40          3.1090     7.5940     2.9280 ho         1 6S8       0.469000
     92 H41          5.4520     8.9110     0.4160 h1         1 6S8       0.050700
     93 H42          5.9830     7.3440     2.1940 ho         1 6S8       0.521000
     94 H43          7.4300     6.9690    -3.4700 ho         1 6S8       0.506000
     95 H44          4.4660     7.8680    -1.5680 h1         1 6S8       0.046700
     96 H45          7.3110     6.7950    -1.1930 h1         1 6S8       0.039200
     97 H46          6.8920     8.4340    -1.7050 h1         1 6S8       0.039200
     98 H47         -1.4060     0.3940    -0.6570 hc         1 6S8       0.054200
     99 H48         -0.7650     1.8050     0.2470 hc         1 6S8       0.054200
    100 H49         -1.8700     3.3300    -1.4060 hc         1 6S8       0.055200
    101 H50         -2.5240     1.9340    -2.2610 hc         1 6S8       0.055200
    102 H51         -3.7970     1.2680    -0.1950 hc         1 6S8       0.035200
    103 H52         -3.1470     2.6700     0.6550 hc         1 6S8       0.035200
    104 H53         -4.2650     4.1930    -1.0040 hc         1 6S8       0.040700
    105 H54         -4.9190     2.7900    -1.8490 hc         1 6S8       0.040700
    106 H55         -6.1880     2.1360     0.2210 hc         1 6S8       0.036700
    107 H56         -5.5350     3.5420     1.0630 hc         1 6S8       0.036700
    108 H57         -6.6590     5.0570    -0.6030 hc         1 6S8       0.040700
    109 H58         -7.3150     3.6480    -1.4370 hc         1 6S8       0.040700
    110 H59         -8.5590     3.0070     0.6560 hc         1 6S8       0.044200
    111 H60         -7.9280     4.4240     1.4670 hc         1 6S8       0.044200
    112 H61         -9.2600     5.9480     0.1430 ha         1 6S8       0.165000
    113 H62        -11.1970     5.1570    -1.0730 ha         1 6S8       0.165000
    114 H63        -11.2100     2.9880    -2.1250 hc         1 6S8       0.044200
    115 H64         -9.8250     2.4230    -1.2150 hc         1 6S8       0.044200
    116 H65        -11.2250     2.3450     0.8750 hc         1 6S8       0.039200
    117 H66        -12.6230     2.8890    -0.0520 hc         1 6S8       0.039200
    118 H67        -12.4730     0.8280    -1.4850 hc         1 6S8       0.037200
    119 H68        -11.0750     0.2850    -0.5560 hc         1 6S8       0.037200
    120 H69        -12.4890     0.1940     1.5190 hc         1 6S8       0.037700
    121 H70        -13.8870     0.7370     0.5900 hc         1 6S8       0.037700
    122 H71        -13.7360    -1.3230    -0.8410 hc         1 6S8       0.036700
    123 H72        -12.3400    -1.8670     0.0900 hc         1 6S8       0.036700
    124 H73        -13.7570    -1.9550     2.1640 hc         1 6S8       0.036700
    125 H74        -15.1530    -1.4110     1.2330 hc         1 6S8       0.036700
    126 H75        -15.0040    -3.4760    -0.1960 hc         1 6S8       0.036700
    127 H76        -13.6100    -4.0200     0.7370 hc         1 6S8       0.036700
    128 H77        -15.0340    -4.1450     2.8090 hc         1 6S8       0.031367
    129 H78        -16.4410    -3.5960     1.8690 hc         1 6S8       0.031367
    130 H79        -15.6850    -5.1630     1.5060 hc         1 6S8       0.031367
@<TRIPOS>BOND
     1     1     2 1   
     2     1    22 1   
     3     1    52 1   
     4     1    53 1   
     5     2     3 1   
     6     2     4 1   
     7     2    54 1   
     8     3    33 1   
     9     3    55 1   
    10     4     5 1   
    11     4     6 1   
    12     4    56 1   
    13     5    57 1   
    14     6     7 2   
    15     6    58 1   
    16     7     8 1   
    17     7    59 1   
    18     8     9 1   
    19     8    60 1   
    20     8    61 1   
    21     9    10 1   
    22     9    62 1   
    23     9    63 1   
    24    10    11 1   
    25    10    64 1   
    26    10    65 1   
    27    11    12 1   
    28    11    66 1   
    29    11    67 1   
    30    12    13 1   
    31    12    68 1   
    32    12    69 1   
    33    13    14 1   
    34    13    70 1   
    35    13    71 1   
    36    14    15 1   
    37    14    72 1   
    38    14    73 1   
    39    15    16 1   
    40    15    74 1   
    41    15    75 1   
    42    16    17 1   
    43    16    76 1   
    44    16    77 1   
    45    17    18 1   
    46    17    78 1   
    47    17    79 1   
    48    18    19 1   
    49    18    80 1   
    50    18    81 1   
    51    19    20 1   
    52    19    82 1   
    53    19    83 1   
    54    20    84 1   
    55    20    85 1   
    56    20    86 1   
    57    21    22 1   
    58    21    23 1   
    59    21    32 1   
    60    21    87 1   
    61    23    24 1   
    62    23    25 1   
    63    23    88 1   
    64    24    89 1   
    65    25    26 1   
    66    25    27 1   
    67    25    90 1   
    68    26    91 1   
    69    27    28 1   
    70    27    30 1   
    71    27    92 1   
    72    28    93 1   
    73    29    31 1   
    74    29    94 1   
    75    30    31 1   
    76    30    32 1   
    77    30    95 1   
    78    31    96 1   
    79    31    97 1   
    80    33    34 2   
    81    33    35 1   
    82    35    36 1   
    83    35    98 1   
    84    35    99 1   
    85    36    37 1   
    86    36   100 1   
    87    36   101 1   
    88    37    38 1   
    89    37   102 1   
    90    37   103 1   
    91    38    39 1   
    92    38   104 1   
    93    38   105 1   
    94    39    40 1   
    95    39   106 1   
    96    39   107 1   
    97    40    41 1   
    98    40   108 1   
    99    40   109 1   
   100    41    42 1   
   101    41   110 1   
   102    41   111 1   
   103    42    43 2   
   104    42   112 1   
   105    43    44 1   
   106    43   113 1   
   107    44    45 1   
   108    44   114 1   
   109    44   115 1   
   110    45    46 1   
   111    45   116 1   
   112    45   117 1   
   113    46    47 1   
   114    46   118 1   
   115    46   119 1   
   116    47    48 1   
   117    47   120 1   
   118    47   121 1   
   119    48    49 1   
   120    48   122 1   
   121    48   123 1   
   122    49    50 1   
   123    49   124 1   
   124    49   125 1   
   125    50    51 1   
   126    50   126 1   
   127    50   127 1   
   128    51   128 1   
   129    51   129 1   
   130    51   130 1   
@<TRIPOS>SUBSTRUCTURE
     1 6S8         1 TEMP              0 ****  ****    0 ROOT
