@<TRIPOS>MOLECULE
6S9
   45    48     1     0     0
SMALL
bcc


@<TRIPOS>ATOM
      1 O            2.4200     1.6340     0.1590 o          1 6S9      -0.587100
      2 C5           2.7250     0.6710     0.8420 c          1 6S9       0.799100
      3 N2           3.9590     0.4780     1.3640 ns         1 6S9      -0.591900
      4 C6           5.0900     1.3210     1.0680 c3         1 6S9       0.158300
      5 C7           6.1080     0.6500     0.1780 ca         1 6S9      -0.120300
      6 C12          5.7340     0.1340    -1.0620 ca         1 6S9      -0.116000
      7 C11          6.6690    -0.4780    -1.8830 ca         1 6S9      -0.130500
      8 C10          7.9950    -0.5840    -1.4750 ca         1 6S9      -0.123000
      9 C9           8.3760    -0.0710    -0.2440 ca         1 6S9      -0.130500
     10 C8           7.4350     0.5400     0.5770 ca         1 6S9      -0.116000
     11 N1           1.8430    -0.3440     1.1670 ns         1 6S9      -0.580400
     12 C3           0.4930    -0.3720     0.8360 ca         1 6S9       0.594200
     13 N           -0.1890     0.7810     0.9430 nb         1 6S9      -0.693000
     14 C2          -1.4770     0.8010     0.6870 ca         1 6S9       0.518200
     15 C4          -0.0770    -1.5790     0.4720 ca         1 6S9      -0.331300
     16 C           -1.4470    -1.5450     0.2330 ca         1 6S9       0.010800
     17 N4          -2.3290    -2.4900    -0.1460 na         1 6S9      -0.005100
     18 N3          -3.5620    -2.0050    -0.2920 nc         1 6S9      -0.509100
     19 C13         -3.5190    -0.7260    -0.0090 cd         1 6S9       0.424500
     20 C1          -2.1820    -0.3520     0.3370 ca         1 6S9      -0.366200
     21 C14         -4.7280     0.0920    -0.0850 ca         1 6S9      -0.054900
     22 C18         -5.7930    -0.2850    -0.9000 ca         1 6S9      -0.220300
     23 C17         -6.9370     0.5020    -0.9540 ca         1 6S9       0.416600
     24 C19         -8.0930     0.1290    -1.8300 c3         1 6S9      -0.143400
     25 N5          -7.0560     1.6250    -0.2440 nb         1 6S9      -0.669000
     26 C16         -6.0450     1.9840     0.5340 ca         1 6S9       0.406200
     27 C15         -4.8680     1.2620     0.6550 ca         1 6S9      -0.240300
     28 H4           4.1360    -0.3380     1.9290 hn         1 6S9       0.308500
     29 H6           4.7210     2.2310     0.5960 h1         1 6S9       0.068700
     30 H5           5.5650     1.6250     2.0040 h1         1 6S9       0.068700
     31 H11          4.7060     0.2160    -1.3950 ha         1 6S9       0.133500
     32 H10          6.3650    -0.8730    -2.8440 ha         1 6S9       0.131500
     33 H9           8.7240    -1.0640    -2.1150 ha         1 6S9       0.131000
     34 H8           9.4050    -0.1500     0.0820 ha         1 6S9       0.131500
     35 H7           7.7380     0.9340     1.5400 ha         1 6S9       0.133500
     36 H3           2.2400    -1.2320     1.4330 hn         1 6S9       0.314500
     37 H1          -1.9670     1.7640     0.7710 h4         1 6S9       0.031100
     38 H2           0.5110    -2.4820     0.3700 ha         1 6S9       0.146000
     39 H           -2.1570    -3.4700    -0.3060 hn         1 6S9       0.330700
     40 H14         -5.7300    -1.1810    -1.5030 ha         1 6S9       0.153000
     41 H16         -9.0160     0.0800    -1.2520 hc         1 6S9       0.051033
     42 H17         -8.2400     0.8770    -2.6100 hc         1 6S9       0.051033
     43 H15         -7.9400    -0.8350    -2.3120 hc         1 6S9       0.051033
     44 H13         -6.1730     2.8970     1.1040 h4         1 6S9       0.020100
     45 H12         -4.1020     1.6070     1.3340 ha         1 6S9       0.143000
@<TRIPOS>BOND
     1     1     2 2   
     2     2     3 1   
     3     2    11 1   
     4     3     4 1   
     5     3    28 1   
     6     4     5 1   
     7     4    29 1   
     8     4    30 1   
     9     5     6 ar  
    10     5    10 ar  
    11     6     7 ar  
    12     6    31 1   
    13     7     8 ar  
    14     7    32 1   
    15     8     9 ar  
    16     8    33 1   
    17     9    10 ar  
    18     9    34 1   
    19    10    35 1   
    20    11    12 1   
    21    11    36 1   
    22    12    13 ar  
    23    12    15 ar  
    24    13    14 ar  
    25    14    20 ar  
    26    14    37 1   
    27    15    16 ar  
    28    15    38 1   
    29    16    17 1   
    30    16    20 ar  
    31    17    18 1   
    32    17    39 1   
    33    18    19 2   
    34    19    20 1   
    35    19    21 1   
    36    21    22 ar  
    37    21    27 ar  
    38    22    23 ar  
    39    22    40 1   
    40    23    24 1   
    41    23    25 ar  
    42    24    41 1   
    43    24    42 1   
    44    24    43 1   
    45    25    26 ar  
    46    26    27 ar  
    47    26    44 1   
    48    27    45 1   
@<TRIPOS>SUBSTRUCTURE
     1 6S9         1 TEMP              0 ****  ****    0 ROOT
