@<TRIPOS>MOLECULE
6S9
   45    48     1     0     0
SMALL
No Charge or Current Charge


@<TRIPOS>ATOM
      1 O            2.5550     1.6420    -0.0140 o          1 6S9      -0.587100
      2 C5           2.7690     0.7740     0.8190 c          1 6S9       0.665100
      3 N2           3.9880     0.6010     1.4210 ns         1 6S9      -0.524900
      4 C6           5.1780     1.4030     1.1370 c3         1 6S9       0.158300
      5 C7           6.0820     0.7100     0.1270 ca         1 6S9      -0.120300
      6 C12          5.8890     0.9110    -1.2540 ca         1 6S9      -0.098000
      7 C11          6.7210     0.2680    -2.1870 ca         1 6S9      -0.112500
      8 C10          7.7510    -0.5790    -1.7450 ca         1 6S9      -0.105000
      9 C9           7.9470    -0.7850    -0.3690 ca         1 6S9      -0.112500
     10 C8           7.1150    -0.1430     0.5650 ca         1 6S9      -0.098000
     11 N1           1.8520    -0.1490     1.2470 ns         1 6S9      -0.346900
     12 C3           0.5010    -0.2930     0.9170 ca         1 6S9       0.528900
     13 N           -0.2010     0.8610     0.7870 nb         1 6S9      -0.693000
     14 C2          -1.5300     0.7720     0.5250 ca         1 6S9       0.452900
     15 C4          -0.0800    -1.5740     0.8350 ca         1 6S9      -0.248000
     16 C           -1.4480    -1.6220     0.5730 ca         1 6S9       0.010800
     17 N4          -2.2950    -2.6920     0.3690 na         1 6S9      -0.055400
     18 N3          -3.5940    -2.2280     0.0790 nc         1 6S9      -0.509100
     19 C13         -3.5030    -0.8880     0.1470 cd         1 6S9       0.424500
     20 C1          -2.1530    -0.4760     0.4400 ca         1 6S9      -0.300900
     21 C14         -4.6600     0.0050    -0.0770 ca         1 6S9      -0.054900
     22 C18         -5.7140    -0.3770    -0.9330 ca         1 6S9      -0.137000
     23 C17         -6.8290     0.4660    -1.0890 ca         1 6S9       0.351300
     24 C19         -7.9660     0.0940    -2.0230 c3         1 6S9      -0.143400
     25 N5          -6.9560     1.6400    -0.4340 nb         1 6S9      -0.669000
     26 C16         -5.9660     1.9980     0.4150 ca         1 6S9       0.340900
     27 C15         -4.8200     1.2150     0.6300 ca         1 6S9      -0.157000
     28 H4           4.0670    -0.1540     2.0900 hn         1 6S9       0.308500
     29 H6           4.8820     2.3910     0.7580 h1         1 6S9       0.068700
     30 H5           5.7260     1.5640     2.0750 h1         1 6S9       0.068700
     31 H11          5.0910     1.5630    -1.6040 ha         1 6S9       0.115500
     32 H10          6.5670     0.4270    -3.2520 ha         1 6S9       0.113500
     33 H9           8.3950    -1.0770    -2.4670 ha         1 6S9       0.113000
     34 H8           8.7440    -1.4420    -0.0260 ha         1 6S9       0.113500
     35 H7           7.2730    -0.3090     1.6290 ha         1 6S9       0.115500
     36 H3           2.1990    -0.8490     1.8870 hn         1 6S9       0.148000
     37 H1          -2.0700     1.7060     0.3820 h4         1 6S9       0.031100
     38 H2           0.5160    -2.4740     0.9560 ha         1 6S9       0.128000
     39 H           -2.0530    -3.6820     0.3950 hn         1 6S9       0.381000
     40 H14         -5.6670    -1.3130    -1.4830 ha         1 6S9       0.135000
     41 H16         -8.9310     0.4460    -1.6400 hc         1 6S9       0.051033
     42 H17         -7.8140     0.5380    -3.0140 hc         1 6S9       0.051033
     43 H15         -8.0370    -0.9920    -2.1490 hc         1 6S9       0.051033
     44 H13         -6.1030     2.9380     0.9500 h4         1 6S9       0.020100
     45 H12         -4.0860     1.5460     1.3580 ha         1 6S9       0.125000
@<TRIPOS>BOND
     1     1     2 2   
     2     2     3 1   
     3     2    11 1   
     4     3     4 1   
     5     3    28 1   
     6     4     5 1   
     7     4    29 1   
     8     4    30 1   
     9     5     6 ar  
    10     5    10 ar  
    11     6     7 ar  
    12     6    31 1   
    13     7     8 ar  
    14     7    32 1   
    15     8     9 ar  
    16     8    33 1   
    17     9    10 ar  
    18     9    34 1   
    19    10    35 1   
    20    11    12 1   
    21    11    36 1   
    22    12    13 ar  
    23    12    15 ar  
    24    13    14 ar  
    25    14    20 ar  
    26    14    37 1   
    27    15    16 ar  
    28    15    38 1   
    29    16    17 1   
    30    16    20 ar  
    31    17    18 1   
    32    17    39 1   
    33    18    19 2   
    34    19    20 1   
    35    19    21 1   
    36    21    22 ar  
    37    21    27 ar  
    38    22    23 ar  
    39    22    40 1   
    40    23    24 1   
    41    23    25 ar  
    42    24    41 1   
    43    24    42 1   
    44    24    43 1   
    45    25    26 ar  
    46    26    27 ar  
    47    26    44 1   
    48    27    45 1   
@<TRIPOS>SUBSTRUCTURE
     1 6S9         1 TEMP              0 ****  ****    0 ROOT
