@<TRIPOS>MOLECULE
6SA
  129   134     1     0     0
SMALL
abcg2


@<TRIPOS>ATOM
      1 CR1         -6.6340    -0.8040     2.8540 c6         1 6SA       0.359300
      2 CR2         -6.9900     0.6620     3.1090 c6         1 6SA       0.120300
      3 CR3         -6.0460     1.5630     2.3260 c6         1 6SA       0.149300
      4 CR4         -4.6030     1.2220     2.6730 c6         1 6SA       0.154300
      5 CR5         -4.3460    -0.2700     2.4450 c6         1 6SA       0.161300
      6 CR6         -2.9720    -0.6870     2.9250 c3         1 6SA       0.169600
      7 OR1         -6.9270    -1.1000     1.5320 os         1 6SA      -0.461000
      8 OR2         -8.3050     0.9740     2.7280 oh         1 6SA      -0.707000
      9 OR3         -6.2570     2.9250     2.6430 oh         1 6SA      -0.742000
     10 OR4         -3.7370     1.9770     1.8560 os         1 6SA      -0.479000
     11 OR5         -5.2910    -1.0310     3.1790 os         1 6SA      -0.465000
     12 OR6         -2.7890    -2.0510     2.6310 oh         1 6SA      -0.711000
     13 CY1         -3.1060     3.0890     2.4270 c6         1 6SA       0.360300
     14 CY2         -3.1880     4.2610     1.4500 c6         1 6SA       0.120300
     15 CY3         -2.3390     3.9750     0.2170 c6         1 6SA       0.173300
     16 CY4         -0.9070     3.6250     0.6160 c6         1 6SA       0.163500
     17 CY5         -0.9060     2.5140     1.6750 c6         1 6SA       0.155300
     18 CY6          0.4600     2.2920     2.3000 c3         1 6SA      -0.096100
     19 OY2         -4.5050     4.5640     1.0610 oh         1 6SA      -0.737000
     20 OY3         -2.2960     5.0980    -0.6310 oh         1 6SA      -0.653000
     21 NY4         -0.1550     3.1990    -0.5550 n7         1 6SA      -0.858400
     22 OY5         -1.7810     2.8190     2.7540 os         1 6SA      -0.468000
     23 CQ1          0.7930     4.1600    -1.1020 c6         1 6SA       0.218700
     24 CQ2          1.0930     3.8820    -2.5740 c6         1 6SA       0.155300
     25 OQ2         -0.1050     3.7090    -3.2880 oh         1 6SA      -0.627000
     26 CQ3          1.9900     2.6520    -2.6780 c6         1 6SA       0.122300
     27 OQ3          2.2080     2.2590    -4.0180 oh         1 6SA      -0.741000
     28 CQ4          3.3480     2.9560    -2.0690 c6         1 6SA       0.225500
     29 OQ4          4.0700     1.7370    -1.9950 os         1 6SA      -0.501000
     30 CQ5          3.2160     3.6030    -0.7120 c2         1 6SA      -0.132400
     31 CQ6          2.0800     4.1800    -0.3200 c2         1 6SA      -0.238200
     32 CQ7          4.4630     3.6120     0.1240 c3         1 6SA       0.201800
     33 OQ7          4.3090     4.4660     1.2280 oh         1 6SA      -0.669000
     34 CW1         -7.7680    -1.9450    -2.3010 c6         1 6SA       0.364300
     35 CW2         -7.6450    -3.3460    -2.8910 c6         1 6SA       0.113300
     36 CW3         -8.1460    -4.3580    -1.8690 c6         1 6SA       0.138300
     37 CW4         -7.4280    -4.1750    -0.5380 c6         1 6SA       0.143300
     38 CW5         -7.5430    -2.7160    -0.0910 c6         1 6SA       0.180300
     39 CW6         -6.7560    -2.4550     1.1750 c3         1 6SA       0.170600
     40 OW2         -8.4230    -3.4940    -4.0520 oh         1 6SA      -0.726000
     41 OW3         -7.9310    -5.6850    -2.2840 oh         1 6SA      -0.724000
     42 OW4         -7.9840    -4.9860     0.4650 oh         1 6SA      -0.719000
     43 OW5         -7.0340    -1.8740    -1.1010 os         1 6SA      -0.468000
     44 CP1          5.2870     1.6160    -2.6720 c6         1 6SA       0.363300
     45 CP2          5.2720     0.3280    -3.4980 c6         1 6SA       0.118300
     46 CP3          5.2300    -0.8750    -2.5600 c6         1 6SA       0.132300
     47 CP4          6.4070    -0.8130    -1.5970 c6         1 6SA       0.162300
     48 CP5          6.3930     0.5310    -0.8550 c6         1 6SA       0.152300
     49 CP6          7.6220     0.7340     0.0050 c3         1 6SA       0.162600
     50 OU2          4.2460     0.2860    -4.4510 oh         1 6SA      -0.730000
     51 OP3          5.3220    -2.0850    -3.2800 oh         1 6SA      -0.732000
     52 OP4          6.2890    -1.8880    -0.6920 os         1 6SA      -0.495000
     53 OP5          6.3660     1.6000    -1.7910 os         1 6SA      -0.451000
     54 OP6          7.4880     1.9500     0.7040 oh         1 6SA      -0.723000
     55 CV1          7.3400    -2.8040    -0.5670 c6         1 6SA       0.364300
     56 CV2          6.7700    -4.2200    -0.6740 c6         1 6SA       0.119300
     57 CV3          5.8640    -4.4980     0.5210 c6         1 6SA       0.107300
     58 CV4          6.6400    -4.2720     1.8120 c6         1 6SA       0.150300
     59 CV5          7.2400    -2.8650     1.8170 c6         1 6SA       0.169300
     60 CV6          8.1610    -2.6500     2.9990 c3         1 6SA       0.168600
     61 OV2          6.1300    -4.4640    -1.8980 oh         1 6SA      -0.729000
     62 OV3          5.4080    -5.8320     0.5280 oh         1 6SA      -0.668000
     63 OV4          5.8170    -4.3930     2.9460 oh         1 6SA      -0.721000
     64 OV5          8.0120    -2.6510     0.6440 os         1 6SA      -0.456000
     65 OV6          8.5840    -1.3070     3.0100 oh         1 6SA      -0.721000
     66 HR1         -7.2000    -1.4590     3.5330 h2         1 6SA       0.067700
     67 HR2         -6.8340     0.8460     4.1810 h1         1 6SA       0.053700
     68 HR3         -6.1940     1.3950     1.2500 h1         1 6SA       0.084700
     69 HR4         -4.4310     1.4480     3.7360 h1         1 6SA       0.057700
     70 HR5         -4.4250    -0.4840     1.3700 h1         1 6SA       0.082700
     71 HR61        -2.2230    -0.0680     2.4220 h1         1 6SA       0.033700
     72 HR62        -2.8890    -0.4840     4.0020 h1         1 6SA       0.033700
     73 H5          -8.9050     0.6970     3.4270 ho         1 6SA       0.511000
     74 H4          -7.1680     3.1510     2.4210 ho         1 6SA       0.531000
     75 HR6         -1.8880    -2.2860     2.8680 ho         1 6SA       0.504000
     76 HY1         -3.5880     3.3560     3.3750 h2         1 6SA       0.080700
     77 HY2         -2.7480     5.1250     1.9730 h1         1 6SA       0.063700
     78 HY3         -2.7600     3.1080    -0.3110 h1         1 6SA       0.061700
     79 H1          -0.4590     4.5170     1.0800 h1         1 6SA       0.055700
     80 HY5         -1.2270     1.5820     1.1880 h1         1 6SA       0.052700
     81 HY61         0.4200     1.4800     3.0270 hc         1 6SA       0.048033
     82 HY62         1.2050     2.0240     1.5520 hc         1 6SA       0.048033
     83 HY63         0.8090     3.1940     2.8050 hc         1 6SA       0.048033
     84 H3          -5.1390     4.0640     1.5990 ho         1 6SA       0.536000
     85 H2          -3.1630     5.2020    -1.0340 ho         1 6SA       0.457000
     86 HY4          0.3180     2.3250    -0.3690 hn         1 6SA       0.415000
     87 HQ1          0.3210     5.1420    -1.0440 h1         1 6SA       0.095700
     88 HQ2          1.6530     4.7460    -2.9610 h1         1 6SA       0.042700
     89 H10          0.0340     4.0150    -4.1890 ho         1 6SA       0.438000
     90 HQ3          1.5370     1.8210    -2.1180 h1         1 6SA       0.062700
     91 H11          1.3760     1.9370    -4.3820 ho         1 6SA       0.523000
     92 HQ4          3.8820     3.6550    -2.7310 h1         1 6SA       0.060700
     93 HQ6          2.0410     4.6550     0.6530 ha         1 6SA       0.204000
     94 HQ71         4.6860     2.5890     0.4460 h1         1 6SA       0.044200
     95 HQ72         5.3110     3.9190    -0.5050 h1         1 6SA       0.044200
     96 HQ7          5.0790     4.3560     1.7940 ho         1 6SA       0.453000
     97 HW1         -8.8320    -1.7330    -2.0910 h2         1 6SA       0.028700
     98 HW2         -6.5800    -3.5410    -3.0920 h1         1 6SA       0.069700
     99 HW3         -9.2200    -4.1700    -1.7000 h1         1 6SA       0.050700
    100 HW4         -6.3600    -4.4030    -0.6870 h1         1 6SA       0.060700
    101 HW5         -8.6050    -2.4870     0.0940 h1         1 6SA       0.054700
    102 HW61        -5.6980    -2.6930     1.0100 h1         1 6SA       0.056200
    103 HW62        -7.1220    -3.1150     1.9690 h1         1 6SA       0.056200
    104 H7          -8.0390    -2.9530    -4.7490 ho         1 6SA       0.525000
    105 H8          -8.5170    -5.8760    -3.0230 ho         1 6SA       0.526000
    106 H9          -7.9290    -5.9030     0.1750 ho         1 6SA       0.526000
    107 HP1          5.4480     2.4780    -3.3310 h2         1 6SA       0.084700
    108 HP2          6.2210     0.2930    -4.0480 h1         1 6SA       0.084700
    109 HP3          4.3000    -0.8510    -1.9750 h1         1 6SA       0.060700
    110 HP4          7.3420    -0.8930    -2.1720 h1         1 6SA       0.060700
    111 HP5          5.5030     0.5610    -0.2120 h1         1 6SA       0.072700
    112 HP61         7.7190    -0.1090     0.6930 h1         1 6SA       0.045200
    113 HP62         8.5120     0.7300    -0.6400 h1         1 6SA       0.045200
    114 HU2          3.4850     0.8150    -4.1580 ho         1 6SA       0.540000
    115 H15          4.5440    -2.1620    -3.8430 ho         1 6SA       0.528000
    116 HP6          8.2330     2.0250     1.3070 ho         1 6SA       0.508000
    117 HV1          8.0880    -2.6370    -1.3500 h2         1 6SA       0.084700
    118 HV2          7.6210    -4.9100    -0.6220 h1         1 6SA       0.086700
    119 HV3          5.0120    -3.8010     0.5040 h1         1 6SA       0.057700
    120 HV4          7.4670    -5.0020     1.8470 h1         1 6SA       0.048700
    121 HV5          6.4200    -2.1340     1.8730 h1         1 6SA       0.074700
    122 HV61         7.6150    -2.9080     3.9130 h1         1 6SA       0.037200
    123 HV62         9.0080    -3.3450     2.9220 h1         1 6SA       0.037200
    124 H14          5.6790    -3.6620    -2.2100 ho         1 6SA       0.540000
    125 H13          4.8480    -5.9600    -0.2450 ho         1 6SA       0.464000
    126 H12          5.4210    -5.2710     2.9370 ho         1 6SA       0.526000
    127 HV6          9.1340    -1.1760     3.7870 ho         1 6SA       0.504000
    128 OW1         -7.2360    -1.0390    -3.1940 oh         1 6SA      -0.705000
    129 H6          -7.5740    -0.1580    -3.0010 ho         1 6SA       0.526000
@<TRIPOS>BOND
     1     1     2 1   
     2     1     7 1   
     3     1    11 1   
     4     1    66 1   
     5     2     3 1   
     6     2     8 1   
     7     2    67 1   
     8     3     4 1   
     9     3     9 1   
    10     3    68 1   
    11     4     5 1   
    12     4    10 1   
    13     4    69 1   
    14     5     6 1   
    15     5    11 1   
    16     5    70 1   
    17     6    12 1   
    18     6    71 1   
    19     6    72 1   
    20     7    39 1   
    21     8    73 1   
    22     9    74 1   
    23    10    13 1   
    24    12    75 1   
    25    13    14 1   
    26    13    22 1   
    27    13    76 1   
    28    14    15 1   
    29    14    19 1   
    30    14    77 1   
    31    15    16 1   
    32    15    20 1   
    33    15    78 1   
    34    16    17 1   
    35    16    21 1   
    36    16    79 1   
    37    17    18 1   
    38    17    22 1   
    39    17    80 1   
    40    18    81 1   
    41    18    82 1   
    42    18    83 1   
    43    19    84 1   
    44    20    85 1   
    45    21    23 1   
    46    21    86 1   
    47    23    24 1   
    48    23    31 1   
    49    23    87 1   
    50    24    25 1   
    51    24    26 1   
    52    24    88 1   
    53    25    89 1   
    54    26    27 1   
    55    26    28 1   
    56    26    90 1   
    57    27    91 1   
    58    28    29 1   
    59    28    30 1   
    60    28    92 1   
    61    29    44 1   
    62    30    31 2   
    63    30    32 1   
    64    31    93 1   
    65    32    33 1   
    66    32    94 1   
    67    32    95 1   
    68    33    96 1   
    69    34    35 1   
    70    34    43 1   
    71    34    97 1   
    72    34   128 1   
    73    35    36 1   
    74    35    40 1   
    75    35    98 1   
    76    36    37 1   
    77    36    41 1   
    78    36    99 1   
    79    37    38 1   
    80    37    42 1   
    81    37   100 1   
    82    38    39 1   
    83    38    43 1   
    84    38   101 1   
    85    39   102 1   
    86    39   103 1   
    87    40   104 1   
    88    41   105 1   
    89    42   106 1   
    90    44    45 1   
    91    44    53 1   
    92    44   107 1   
    93    45    46 1   
    94    45    50 1   
    95    45   108 1   
    96    46    47 1   
    97    46    51 1   
    98    46   109 1   
    99    47    48 1   
   100    47    52 1   
   101    47   110 1   
   102    48    49 1   
   103    48    53 1   
   104    48   111 1   
   105    49    54 1   
   106    49   112 1   
   107    49   113 1   
   108    50   114 1   
   109    51   115 1   
   110    52    55 1   
   111    54   116 1   
   112    55    56 1   
   113    55    64 1   
   114    55   117 1   
   115    56    57 1   
   116    56    61 1   
   117    56   118 1   
   118    57    58 1   
   119    57    62 1   
   120    57   119 1   
   121    58    59 1   
   122    58    63 1   
   123    58   120 1   
   124    59    60 1   
   125    59    64 1   
   126    59   121 1   
   127    60    65 1   
   128    60   122 1   
   129    60   123 1   
   130    61   124 1   
   131    62   125 1   
   132    63   126 1   
   133    65   127 1   
   134   128   129 1   
@<TRIPOS>SUBSTRUCTURE
     1 6SA         1 TEMP              0 ****  ****    0 ROOT
