@<TRIPOS>MOLECULE
6SA
  129   134     1     0     0
SMALL
No Charge or Current Charge


@<TRIPOS>ATOM
      1 CR1         -8.4120     0.0170     2.6510 c6         1 6SA       0.359300
      2 CR2         -8.1680     1.5490     2.8700 c6         1 6SA       0.120300
      3 CR3         -6.9170     2.0050     2.0660 c6         1 6SA       0.149300
      4 CR4         -5.6820     1.1280     2.4530 c6         1 6SA       0.154300
      5 CR5         -6.0340    -0.3630     2.1910 c6         1 6SA       0.161300
      6 CR6         -4.8650    -1.3220     2.5890 c3         1 6SA       0.169600
      7 OR1         -8.8180    -0.2410     1.2940 os         1 6SA      -0.461000
      8 OR2         -9.3110     2.3460     2.4770 oh         1 6SA      -0.707000
      9 OR3         -6.7020     3.4180     2.2720 oh         1 6SA      -0.742000
     10 OR4         -4.4890     1.5140     1.7270 os         1 6SA      -0.479000
     11 OR5         -7.2150    -0.7350     2.9560 os         1 6SA      -0.465000
     12 OR6         -5.1840    -2.7180     2.4120 oh         1 6SA      -0.711000
     13 CY1         -3.7540     2.6280     2.2790 c6         1 6SA       0.360300
     14 CY2         -3.5230     3.7600     1.2260 c6         1 6SA       0.120300
     15 CY3         -2.5610     3.2560     0.1120 c6         1 6SA       0.173300
     16 CY4         -1.2290     2.6960     0.7310 c6         1 6SA       0.163500
     17 CY5         -1.5950     1.6120     1.8020 c6         1 6SA       0.155300
     18 CY6         -0.3610     1.0900     2.5850 c3         1 6SA      -0.096100
     19 OY2         -4.7590     4.2420     0.6370 oh         1 6SA      -0.737000
     20 OY3         -2.3450     4.3360    -0.8160 oh         1 6SA      -0.653000
     21 NY4         -0.3000     2.1310    -0.3030 n7         1 6SA      -0.858400
     22 OY5         -2.4980     2.1480     2.7970 os         1 6SA      -0.468000
     23 CQ1          0.6560     3.1120    -0.8820 c6         1 6SA       0.218700
     24 CQ2          1.1240     2.6310    -2.2910 c6         1 6SA       0.155300
     25 OQ2          0.0030     2.0330    -2.9550 oh         1 6SA      -0.627000
     26 CQ3          2.2680     1.5890    -2.1600 c6         1 6SA       0.122300
     27 OQ3          2.5780     1.0320    -3.4570 oh         1 6SA      -0.741000
     28 CQ4          3.4990     2.2480    -1.4560 c6         1 6SA       0.225500
     29 OQ4          4.5480     1.2780    -1.2200 os         1 6SA      -0.501000
     30 CQ5          3.0880     2.9200    -0.1400 c2         1 6SA      -0.132400
     31 CQ6          1.8100     3.2960     0.0930 c2         1 6SA      -0.238200
     32 CQ7          4.2290     3.1710     0.8400 c3         1 6SA       0.201800
     33 OQ7          4.0570     4.4260     1.5140 oh         1 6SA      -0.669000
     34 CW1         -8.6590    -1.4420    -2.7240 c6         1 6SA       0.364300
     35 CW2         -9.1690    -2.8470    -3.1900 c6         1 6SA       0.113300
     36 CW3        -10.4630    -3.1830    -2.3990 c6         1 6SA       0.138300
     37 CW4        -10.1810    -3.1130    -0.8680 c6         1 6SA       0.143300
     38 CW5         -9.5940    -1.7080    -0.5120 c6         1 6SA       0.180300
     39 CW6         -9.1860    -1.6020     0.9860 c3         1 6SA       0.170600
     40 OW2         -9.4160    -2.8970    -4.6160 oh         1 6SA      -0.726000
     41 OW3        -10.9570    -4.4810    -2.7730 oh         1 6SA      -0.724000
     42 OW4        -11.3930    -3.4030    -0.1470 oh         1 6SA      -0.719000
     43 OW5         -8.4090    -1.4540    -1.3180 os         1 6SA      -0.468000
     44 CP1          5.4250     1.0170    -2.3380 c6         1 6SA       0.363300
     45 CP2          5.4620    -0.5050    -2.7150 c6         1 6SA       0.118300
     46 CP3          6.1260    -1.3020    -1.5610 c6         1 6SA       0.132300
     47 CP4          7.5450    -0.7180    -1.2580 c6         1 6SA       0.162300
     48 CP5          7.3990     0.7940    -0.9160 c6         1 6SA       0.152300
     49 CP6          8.7850     1.4690    -0.6470 c3         1 6SA       0.162600
     50 OU2          4.1530    -1.0610    -2.9950 oh         1 6SA      -0.730000
     51 OP3          6.1350    -2.7020    -1.9000 oh         1 6SA      -0.732000
     52 OP4          8.2090    -1.4300    -0.1850 os         1 6SA      -0.495000
     53 OP5          6.7470     1.4960    -2.0120 os         1 6SA      -0.451000
     54 OP6          8.6890     2.8830    -0.3700 oh         1 6SA      -0.723000
     55 CV1          8.8890    -2.6450    -0.5680 c6         1 6SA       0.364300
     56 CV2          8.4120    -3.8770     0.2800 c6         1 6SA       0.119300
     57 CV3          8.8700    -3.6970     1.7550 c6         1 6SA       0.107300
     58 CV4         10.4050    -3.4520     1.8200 c6         1 6SA       0.150300
     59 CV5         10.7690    -2.2210     0.9310 c6         1 6SA       0.169300
     60 CV6         12.3100    -1.9480     0.8950 c3         1 6SA       0.168600
     61 OV2          6.9770    -4.0750     0.2290 oh         1 6SA      -0.729000
     62 OV3          8.5010    -4.8480     2.5370 oh         1 6SA      -0.668000
     63 OV4         10.7980    -3.2760     3.1930 oh         1 6SA      -0.721000
     64 OV5         10.3110    -2.4420    -0.4330 os         1 6SA      -0.456000
     65 OV6         12.6780    -0.8440     0.0400 oh         1 6SA      -0.721000
     66 HR1         -9.2160    -0.3060     3.3290 h2         1 6SA       0.067700
     67 HR2         -7.9640     1.7010     3.9400 h1         1 6SA       0.053700
     68 HR3         -7.1220     1.8210     1.0000 h1         1 6SA       0.084700
     69 HR4         -5.4860     1.2370     3.5310 h1         1 6SA       0.057700
     70 HR5         -6.2380    -0.5070     1.1200 h1         1 6SA       0.082700
     71 HR61        -3.9850    -1.0620     1.9850 h1         1 6SA       0.033700
     72 HR62        -4.6060    -1.1270     3.6390 h1         1 6SA       0.033700
     73 H5          -9.7090     1.8910     1.6950 ho         1 6SA       0.511000
     74 H4          -7.6070     3.7710     2.4760 ho         1 6SA       0.531000
     75 HR6         -4.4220    -3.2350     2.7640 ho         1 6SA       0.504000
     76 HY1         -4.3200     3.0650     3.1160 h2         1 6SA       0.080700
     77 HY2         -3.0250     4.5870     1.7550 h1         1 6SA       0.063700
     78 HY3         -3.0580     2.4230    -0.4090 h1         1 6SA       0.061700
     79 H1          -0.7260     3.5150     1.2660 h1         1 6SA       0.055700
     80 HY5         -2.0760     0.7550     1.3080 h1         1 6SA       0.052700
     81 HY61        -0.6670     0.3970     3.3770 hc         1 6SA       0.048033
     82 HY62         0.3330     0.5500     1.9310 hc         1 6SA       0.048033
     83 HY63         0.1900     1.9140     3.0530 hc         1 6SA       0.048033
     84 H3          -5.4990     3.9180     1.2360 ho         1 6SA       0.536000
     85 H2          -3.2200     4.7860    -0.8570 ho         1 6SA       0.457000
     86 HY4          0.2650     1.3930     0.1330 hn         1 6SA       0.415000
     87 HQ1          0.1570     4.0830    -1.0270 h1         1 6SA       0.095700
     88 HQ2          1.4960     3.4970    -2.8590 h1         1 6SA       0.042700
     89 H10         -0.6080     1.8610    -2.1950 ho         1 6SA       0.438000
     90 HQ3          1.9100     0.7850    -1.5000 h1         1 6SA       0.062700
     91 H11          1.7330     1.1280    -3.9680 ho         1 6SA       0.523000
     92 HQ4          3.8950     3.0400    -2.1090 h1         1 6SA       0.060700
     93 HQ6          1.5550     3.7980     1.0260 ha         1 6SA       0.204000
     94 HQ71         4.2620     2.3480     1.5670 h1         1 6SA       0.044200
     95 HQ72         5.1900     3.1720     0.3060 h1         1 6SA       0.044200
     96 HQ7          4.8290     4.5340     2.1130 ho         1 6SA       0.453000
     97 HW1         -9.3960    -0.6610    -2.9660 h2         1 6SA       0.028700
     98 HW2         -8.3980    -3.5850    -2.9190 h1         1 6SA       0.069700
     99 HW3        -11.2150    -2.4170    -2.6440 h1         1 6SA       0.050700
    100 HW4         -9.4180    -3.8680    -0.6260 h1         1 6SA       0.060700
    101 HW5        -10.3440    -0.9320    -0.7240 h1         1 6SA       0.054700
    102 HW61        -8.3520    -2.2910     1.1740 h1         1 6SA       0.056200
    103 HW62       -10.0340    -1.9150     1.6090 h1         1 6SA       0.056200
    104 H7          -8.6460    -2.4400    -5.0350 ho         1 6SA       0.525000
    105 H8         -10.7870    -4.5370    -3.7460 ho         1 6SA       0.526000
    106 H9         -11.8290    -4.1160    -0.6770 ho         1 6SA       0.526000
    107 HP1          5.0720     1.5700    -3.2220 h2         1 6SA       0.084700
    108 HP2          6.1000    -0.5960    -3.6070 h1         1 6SA       0.084700
    109 HP3          5.5120    -1.1570    -0.6590 h1         1 6SA       0.060700
    110 HP4          8.1650    -0.7920    -2.1640 h1         1 6SA       0.060700
    111 HP5          6.7900     0.9020    -0.0070 h1         1 6SA       0.072700
    112 HP61         9.2590     0.9540     0.1990 h1         1 6SA       0.045200
    113 HP62         9.4220     1.2980    -1.5260 h1         1 6SA       0.045200
    114 HU2          3.5420    -0.2750    -3.1450 ho         1 6SA       0.540000
    115 H15          5.3320    -2.7990    -2.4760 ho         1 6SA       0.528000
    116 HP6          9.6100     3.2250    -0.2900 ho         1 6SA       0.508000
    117 HV1          8.6770    -2.8700    -1.6250 h2         1 6SA       0.084700
    118 HV2          8.9230    -4.7620    -0.1310 h1         1 6SA       0.086700
    119 HV3          8.3650    -2.8040     2.1560 h1         1 6SA       0.057700
    120 HV4         10.9120    -4.3360     1.4030 h1         1 6SA       0.048700
    121 HV5         10.2770    -1.3240     1.3340 h1         1 6SA       0.074700
    122 HV61        12.6470    -1.7510     1.9210 h1         1 6SA       0.037200
    123 HV62        12.8100    -2.8660     0.5590 h1         1 6SA       0.037200
    124 H14          6.6470    -3.5340    -0.5520 ho         1 6SA       0.540000
    125 H13          7.6140    -5.1070     2.1930 ho         1 6SA       0.464000
    126 H12         10.2320    -3.9150     3.6930 ho         1 6SA       0.526000
    127 HV6         13.6630    -0.8030     0.0310 ho         1 6SA       0.504000
    128 OW1         -7.4140    -1.1370    -3.3140 oh         1 6SA      -0.705000
    129 H6          -6.8880    -0.8100    -2.5510 ho         1 6SA       0.526000
@<TRIPOS>BOND
     1     1     2 1   
     2     1     7 1   
     3     1    11 1   
     4     1    66 1   
     5     2     3 1   
     6     2     8 1   
     7     2    67 1   
     8     3     4 1   
     9     3     9 1   
    10     3    68 1   
    11     4     5 1   
    12     4    10 1   
    13     4    69 1   
    14     5     6 1   
    15     5    11 1   
    16     5    70 1   
    17     6    12 1   
    18     6    71 1   
    19     6    72 1   
    20     7    39 1   
    21     8    73 1   
    22     9    74 1   
    23    10    13 1   
    24    12    75 1   
    25    13    14 1   
    26    13    22 1   
    27    13    76 1   
    28    14    15 1   
    29    14    19 1   
    30    14    77 1   
    31    15    16 1   
    32    15    20 1   
    33    15    78 1   
    34    16    17 1   
    35    16    21 1   
    36    16    79 1   
    37    17    18 1   
    38    17    22 1   
    39    17    80 1   
    40    18    81 1   
    41    18    82 1   
    42    18    83 1   
    43    19    84 1   
    44    20    85 1   
    45    21    23 1   
    46    21    86 1   
    47    23    24 1   
    48    23    31 1   
    49    23    87 1   
    50    24    25 1   
    51    24    26 1   
    52    24    88 1   
    53    25    89 1   
    54    26    27 1   
    55    26    28 1   
    56    26    90 1   
    57    27    91 1   
    58    28    29 1   
    59    28    30 1   
    60    28    92 1   
    61    29    44 1   
    62    30    31 2   
    63    30    32 1   
    64    31    93 1   
    65    32    33 1   
    66    32    94 1   
    67    32    95 1   
    68    33    96 1   
    69    34    35 1   
    70    34    43 1   
    71    34    97 1   
    72    34   128 1   
    73    35    36 1   
    74    35    40 1   
    75    35    98 1   
    76    36    37 1   
    77    36    41 1   
    78    36    99 1   
    79    37    38 1   
    80    37    42 1   
    81    37   100 1   
    82    38    39 1   
    83    38    43 1   
    84    38   101 1   
    85    39   102 1   
    86    39   103 1   
    87    40   104 1   
    88    41   105 1   
    89    42   106 1   
    90    44    45 1   
    91    44    53 1   
    92    44   107 1   
    93    45    46 1   
    94    45    50 1   
    95    45   108 1   
    96    46    47 1   
    97    46    51 1   
    98    46   109 1   
    99    47    48 1   
   100    47    52 1   
   101    47   110 1   
   102    48    49 1   
   103    48    53 1   
   104    48   111 1   
   105    49    54 1   
   106    49   112 1   
   107    49   113 1   
   108    50   114 1   
   109    51   115 1   
   110    52    55 1   
   111    54   116 1   
   112    55    56 1   
   113    55    64 1   
   114    55   117 1   
   115    56    57 1   
   116    56    61 1   
   117    56   118 1   
   118    57    58 1   
   119    57    62 1   
   120    57   119 1   
   121    58    59 1   
   122    58    63 1   
   123    58   120 1   
   124    59    60 1   
   125    59    64 1   
   126    59   121 1   
   127    60    65 1   
   128    60   122 1   
   129    60   123 1   
   130    61   124 1   
   131    62   125 1   
   132    63   126 1   
   133    65   127 1   
   134   128   129 1   
@<TRIPOS>SUBSTRUCTURE
     1 6SA         1 TEMP              0 ****  ****    0 ROOT
