@<TRIPOS>MOLECULE
6SB
   78    81     1     0     0
SMALL
No Charge or Current Charge


@<TRIPOS>ATOM
      1 S01          9.4880    -0.7500    -0.9330 s6         1 6SB       1.324600
      2 O02         -2.3230     2.3560    -0.2360 oh         1 6SB      -0.656000
      3 O03         -8.1580     1.0360    -2.9990 oh         1 6SB      -0.659000
      4 O04          5.0910     1.2860    -1.5300 o          1 6SB      -0.605100
      5 O05          9.2270    -0.7200    -2.3790 o          1 6SB      -0.696200
      6 O06          9.5580    -2.0970    -0.3500 o          1 6SB      -0.696200
      7 O07         10.5480     0.1650    -0.4850 o          1 6SB      -0.696200
      8 N08          5.5600    -0.2840     0.0590 ns         1 6SB      -0.497900
      9 C09         -1.5970     0.2780     0.9530 c5         1 6SB      -0.028000
     10 C10         -2.4310    -0.6920     0.0320 c5         1 6SB      -0.066700
     11 C11         -3.8930    -1.0790     0.4850 c6         1 6SB      -0.042700
     12 C12         -4.9030     0.1520     0.5530 c6         1 6SB      -0.043700
     13 C13         -6.4420    -0.2570     0.8870 c6         1 6SB      -0.031000
     14 C14         -0.2330     0.2520     0.1480 c5         1 6SB      -0.049700
     15 C15         -2.3280     1.6540     1.0130 c6         1 6SB       0.183300
     16 C16         -4.3660     1.2220     1.5370 c6         1 6SB      -0.108400
     17 C17         -6.9290    -1.3110    -0.2080 c6         1 6SB      -0.047700
     18 C18         -1.4670    -1.9030    -0.1290 c5         1 6SB      -0.071400
     19 C19         -4.5020    -2.1700    -0.4850 c6         1 6SB      -0.071400
     20 C20         -0.0410    -1.2810    -0.1260 c5         1 6SB      -0.079400
     21 C21         -6.0030    -2.5600    -0.2340 c6         1 6SB      -0.067400
     22 C22         -7.4230     0.9860     0.7520 c6         1 6SB      -0.066400
     23 C23         -1.4380    -0.2310     2.4260 c3         1 6SB      -0.083100
     24 C24          1.0520     0.9280     0.7620 c3         1 6SB      -0.048700
     25 C25         -7.1120    -0.7250    -1.6710 c6         1 6SB      -0.072400
     26 C26         -6.6470    -0.8630     2.3410 c3         1 6SB      -0.084100
     27 C27         -7.5900     1.5880    -0.6920 c6         1 6SB      -0.111400
     28 C28         -8.0680     0.4950    -1.6790 c6         1 6SB       0.171300
     29 C29          2.2880     0.7670    -0.1810 c3         1 6SB      -0.071400
     30 C30          0.8540     2.4150     1.1590 c3         1 6SB      -0.086100
     31 C31          3.6490     1.2160     0.4140 c3         1 6SB      -0.165400
     32 C32          4.8210     0.7550    -0.4620 c          1 6SB       0.592100
     33 C33          6.7470    -0.8630    -0.5660 c3         1 6SB       0.137000
     34 C34          7.9970    -0.0470    -0.2100 c3         1 6SB      -0.382400
     35 H081         5.2590    -0.6520     0.9530 hn         1 6SB       0.294500
     36 H101        -2.5780    -0.2210    -0.9480 hc         1 6SB       0.063700
     37 H111        -3.8350    -1.5310     1.4840 hc         1 6SB       0.044700
     38 H121        -4.8850     0.6180    -0.4400 hc         1 6SB       0.059700
     39 H141        -0.3900     0.7500    -0.8150 hc         1 6SB       0.068700
     40 H151        -1.9070     2.2910     1.8010 h1         1 6SB       0.032700
     41 H161        -4.9490     2.1490     1.4870 hc         1 6SB       0.038700
     42 H162        -4.4090     0.8620     2.5720 hc         1 6SB       0.038700
     43 H171        -7.9240    -1.6670     0.0980 hc         1 6SB       0.038700
     44 H182        -1.5860    -2.6190     0.6920 hc         1 6SB       0.037700
     45 H181        -1.6590    -2.4550    -1.0560 hc         1 6SB       0.037700
     46 H192        -4.3900    -1.8310    -1.5230 hc         1 6SB       0.042200
     47 H191        -3.9080    -3.0910    -0.4170 hc         1 6SB       0.042200
     48 H202         0.4630    -1.4550    -1.0830 hc         1 6SB       0.043700
     49 H201         0.5800    -1.7570     0.6430 hc         1 6SB       0.043700
     50 H211        -6.0830    -3.1080     0.7140 hc         1 6SB       0.037700
     51 H212        -6.3380    -3.2620    -1.0100 hc         1 6SB       0.037700
     52 H221        -8.4210     0.6780     1.0940 hc         1 6SB       0.037200
     53 H222        -7.1330     1.7840     1.4460 hc         1 6SB       0.037200
     54 H233        -0.8470     0.4720     3.0230 hc         1 6SB       0.032700
     55 H231        -2.4050    -0.3390     2.9290 hc         1 6SB       0.032700
     56 H232        -0.9350    -1.2010     2.4910 hc         1 6SB       0.032700
     57 H241         1.2970     0.3930     1.6880 hc         1 6SB       0.037700
     58 H251        -6.1450    -0.4280    -2.0960 hc         1 6SB       0.055200
     59 H252        -7.5130    -1.5030    -2.3350 hc         1 6SB       0.055200
     60 H263        -6.4880    -0.1040     3.1160 hc         1 6SB       0.031700
     61 H262        -7.6640    -1.2500     2.4750 hc         1 6SB       0.031700
     62 H261        -5.9540    -1.6860     2.5480 hc         1 6SB       0.031700
     63 H272        -8.3180     2.4100    -0.6630 hc         1 6SB       0.045700
     64 H271        -6.6420     2.0240    -1.0330 hc         1 6SB       0.045700
     65 H281        -9.0620     0.1510    -1.3560 h1         1 6SB       0.020700
     66 H291         2.3960    -0.2880    -0.4560 hc         1 6SB       0.050700
     67 H292         2.1060     1.3110    -1.1160 hc         1 6SB       0.050700
     68 H302         0.1630     2.5070     2.0000 hc         1 6SB       0.032367
     69 H303         1.7880     2.8750     1.4980 hc         1 6SB       0.032367
     70 H301         0.4730     3.0010     0.3140 hc         1 6SB       0.032367
     71 H311         3.6780     2.3100     0.4650 hc         1 6SB       0.051200
     72 H312         3.7480     0.7910     1.4200 hc         1 6SB       0.051200
     73 H332         6.8570    -1.8970    -0.2130 h1         1 6SB       0.065200
     74 H331         6.6050    -0.8900    -1.6560 h1         1 6SB       0.065200
     75 H341         8.1520    -0.0270     0.8730 h1         1 6SB       0.071200
     76 H342         7.9140     0.9750    -0.5920 h1         1 6SB       0.071200
     77 H021        -2.8790     3.1540    -0.1090 ho         1 6SB       0.436000
     78 H031        -8.8020     1.7770    -2.9540 ho         1 6SB       0.438000
@<TRIPOS>BOND
     1     1     5 1   
     2     1     6 1   
     3     1     7 1   
     4     1    34 1   
     5     2    15 1   
     6     2    77 1   
     7     3    28 1   
     8     3    78 1   
     9     4    32 2   
    10     8    32 1   
    11     8    33 1   
    12     8    35 1   
    13     9    10 1   
    14     9    14 1   
    15     9    15 1   
    16     9    23 1   
    17    10    11 1   
    18    10    18 1   
    19    10    36 1   
    20    11    12 1   
    21    11    19 1   
    22    11    37 1   
    23    12    13 1   
    24    12    16 1   
    25    12    38 1   
    26    13    17 1   
    27    13    22 1   
    28    13    26 1   
    29    14    20 1   
    30    14    24 1   
    31    14    39 1   
    32    15    16 1   
    33    15    40 1   
    34    16    41 1   
    35    16    42 1   
    36    17    21 1   
    37    17    25 1   
    38    17    43 1   
    39    18    20 1   
    40    18    44 1   
    41    18    45 1   
    42    19    21 1   
    43    19    46 1   
    44    19    47 1   
    45    20    48 1   
    46    20    49 1   
    47    21    50 1   
    48    21    51 1   
    49    22    27 1   
    50    22    52 1   
    51    22    53 1   
    52    23    54 1   
    53    23    55 1   
    54    23    56 1   
    55    24    29 1   
    56    24    30 1   
    57    24    57 1   
    58    25    28 1   
    59    25    58 1   
    60    25    59 1   
    61    26    60 1   
    62    26    61 1   
    63    26    62 1   
    64    27    28 1   
    65    27    63 1   
    66    27    64 1   
    67    28    65 1   
    68    29    31 1   
    69    29    66 1   
    70    29    67 1   
    71    30    68 1   
    72    30    69 1   
    73    30    70 1   
    74    31    32 1   
    75    31    71 1   
    76    31    72 1   
    77    33    34 1   
    78    33    73 1   
    79    33    74 1   
    80    34    75 1   
    81    34    76 1   
@<TRIPOS>SUBSTRUCTURE
     1 6SB         1 TEMP              0 ****  ****    0 ROOT
