@<TRIPOS>MOLECULE
6SB
   78    81     1     0     0
SMALL
abcg2


@<TRIPOS>ATOM
      1 S01          9.1420    -0.4580    -1.2250 s6         1 6SB       1.324600
      2 O02         -2.4560     1.9640    -0.5030 oh         1 6SB      -0.656000
      3 O03         -7.7550     0.7590    -3.1240 oh         1 6SB      -0.659000
      4 O04          5.0120     1.9730    -0.5870 o          1 6SB      -0.605100
      5 O05          9.0700     0.5560    -2.2960 o          1 6SB      -0.696200
      6 O06          9.0730    -1.8420    -1.7370 o          1 6SB      -0.696200
      7 O07         10.2660    -0.2400    -0.2940 o          1 6SB      -0.696200
      8 N08          5.1950    -0.2500    -0.2460 ns         1 6SB      -0.497900
      9 C09         -1.7190     0.1760     0.9270 c5         1 6SB      -0.028000
     10 C10         -2.4370    -0.9230     0.1210 c5         1 6SB      -0.066700
     11 C11         -3.8660    -1.2050     0.5610 c6         1 6SB      -0.042700
     12 C12         -4.6750     0.0990     0.4410 c6         1 6SB      -0.043700
     13 C13         -6.1710    -0.0900     0.7920 c6         1 6SB      -0.031000
     14 C14         -0.3240     0.1480     0.2480 c5         1 6SB      -0.049700
     15 C15         -2.5370     1.4710     0.8210 c6         1 6SB       0.183300
     16 C16         -3.9930     1.2210     1.2290 c6         1 6SB      -0.108400
     17 C17         -6.7630    -1.2160    -0.0910 c6         1 6SB      -0.047700
     18 C18         -1.4400    -2.0740     0.1160 c5         1 6SB      -0.071400
     19 C19         -4.4910    -2.3250    -0.2670 c6         1 6SB      -0.071400
     20 C20         -0.0700    -1.3700     0.0380 c5         1 6SB      -0.079400
     21 C21         -5.9700    -2.5150     0.0470 c6         1 6SB      -0.067400
     22 C22         -6.9890     1.1880     0.5360 c6         1 6SB      -0.066400
     23 C23         -1.5750    -0.1980     2.4090 c3         1 6SB      -0.083100
     24 C24          0.8560     0.8400     0.9430 c3         1 6SB      -0.048700
     25 C25         -6.8990    -0.8120    -1.5630 c6         1 6SB      -0.072400
     26 C26         -6.3660    -0.4450     2.2720 c3         1 6SB      -0.084100
     27 C27         -7.0770     1.5930    -0.9290 c6         1 6SB      -0.111400
     28 C28         -7.6970     0.4660    -1.7410 c6         1 6SB       0.171300
     29 C29          2.1170     0.7290     0.0720 c3         1 6SB      -0.071400
     30 C30          0.5880     2.3040     1.2820 c3         1 6SB      -0.086100
     31 C31          3.4100     0.9330     0.8660 c3         1 6SB      -0.165400
     32 C32          4.6180     0.9490    -0.0430 c          1 6SB       0.592100
     33 C33          6.3800    -0.4390    -1.0490 c3         1 6SB       0.137000
     34 C34          7.6530    -0.2290    -0.2390 c3         1 6SB      -0.382400
     35 H081         4.8560    -1.0400     0.2780 hn         1 6SB       0.294500
     36 H101        -2.5020    -0.5520    -0.9120 hc         1 6SB       0.063700
     37 H111        -3.8610    -1.5280     1.6090 hc         1 6SB       0.044700
     38 H121        -4.6240     0.3880    -0.6160 hc         1 6SB       0.059700
     39 H141        -0.4370     0.6090    -0.7390 hc         1 6SB       0.068700
     40 H151        -2.1300     2.2180     1.5140 h1         1 6SB       0.032700
     41 H161        -4.5400     2.1620     1.1060 hc         1 6SB       0.038700
     42 H162        -4.0250     1.0070     2.3010 hc         1 6SB       0.038700
     43 H171        -7.7810    -1.4030     0.2780 hc         1 6SB       0.038700
     44 H182        -1.5260    -2.6680     1.0300 hc         1 6SB       0.037700
     45 H181        -1.5970    -2.7600    -0.7170 hc         1 6SB       0.037700
     46 H192        -4.3550    -2.1030    -1.3320 hc         1 6SB       0.042200
     47 H191        -3.9570    -3.2610    -0.0840 hc         1 6SB       0.042200
     48 H202         0.4110    -1.5570    -0.9230 hc         1 6SB       0.043700
     49 H201         0.6120    -1.7560     0.8010 hc         1 6SB       0.043700
     50 H211        -6.0740    -2.9000     1.0650 hc         1 6SB       0.037700
     51 H212        -6.3990    -3.2800    -0.6070 hc         1 6SB       0.037700
     52 H221        -8.0060     1.0130     0.9070 hc         1 6SB       0.037200
     53 H222        -6.6020     2.0180     1.1330 hc         1 6SB       0.037200
     54 H233        -1.2080     0.6480     2.9930 hc         1 6SB       0.032700
     55 H231        -2.5140    -0.5140     2.8630 hc         1 6SB       0.032700
     56 H232        -0.8640    -1.0110     2.5570 hc         1 6SB       0.032700
     57 H241         1.0610     0.3010     1.8780 hc         1 6SB       0.037700
     58 H251        -5.9180    -0.6770    -2.0290 hc         1 6SB       0.055200
     59 H252        -7.3860    -1.6280    -2.1060 hc         1 6SB       0.055200
     60 H263        -6.1030     0.3930     2.9210 hc         1 6SB       0.031700
     61 H262        -7.4150    -0.6810     2.4630 hc         1 6SB       0.031700
     62 H261        -5.7790    -1.3030     2.5990 hc         1 6SB       0.031700
     63 H272        -7.6870     2.4990    -1.0200 hc         1 6SB       0.045700
     64 H271        -6.0880     1.8380    -1.3290 hc         1 6SB       0.045700
     65 H281        -8.7130     0.2940    -1.3480 h1         1 6SB       0.020700
     66 H291         2.1620    -0.2520    -0.4050 hc         1 6SB       0.050700
     67 H292         2.0600     1.4630    -0.7390 hc         1 6SB       0.050700
     68 H302        -0.1490     2.4150     2.0760 hc         1 6SB       0.032367
     69 H303         1.4930     2.8070     1.6270 hc         1 6SB       0.032367
     70 H301         0.2200     2.8470     0.4090 hc         1 6SB       0.032367
     71 H311         3.3900     1.8830     1.4020 hc         1 6SB       0.051200
     72 H312         3.5000     0.1420     1.6150 hc         1 6SB       0.051200
     73 H332         6.3570    -1.4510    -1.4520 h1         1 6SB       0.065200
     74 H331         6.3540     0.2500    -1.8920 h1         1 6SB       0.065200
     75 H341         7.6990    -0.9350     0.5930 h1         1 6SB       0.071200
     76 H342         7.6840     0.7820     0.1720 h1         1 6SB       0.071200
     77 H021        -3.0400     2.7250    -0.5710 ho         1 6SB       0.436000
     78 H031        -8.2730     1.5620    -3.2360 ho         1 6SB       0.438000
@<TRIPOS>BOND
     1     1     5 1   
     2     1     6 1   
     3     1     7 1   
     4     1    34 1   
     5     2    15 1   
     6     2    77 1   
     7     3    28 1   
     8     3    78 1   
     9     4    32 2   
    10     8    32 1   
    11     8    33 1   
    12     8    35 1   
    13     9    10 1   
    14     9    14 1   
    15     9    15 1   
    16     9    23 1   
    17    10    11 1   
    18    10    18 1   
    19    10    36 1   
    20    11    12 1   
    21    11    19 1   
    22    11    37 1   
    23    12    13 1   
    24    12    16 1   
    25    12    38 1   
    26    13    17 1   
    27    13    22 1   
    28    13    26 1   
    29    14    20 1   
    30    14    24 1   
    31    14    39 1   
    32    15    16 1   
    33    15    40 1   
    34    16    41 1   
    35    16    42 1   
    36    17    21 1   
    37    17    25 1   
    38    17    43 1   
    39    18    20 1   
    40    18    44 1   
    41    18    45 1   
    42    19    21 1   
    43    19    46 1   
    44    19    47 1   
    45    20    48 1   
    46    20    49 1   
    47    21    50 1   
    48    21    51 1   
    49    22    27 1   
    50    22    52 1   
    51    22    53 1   
    52    23    54 1   
    53    23    55 1   
    54    23    56 1   
    55    24    29 1   
    56    24    30 1   
    57    24    57 1   
    58    25    28 1   
    59    25    58 1   
    60    25    59 1   
    61    26    60 1   
    62    26    61 1   
    63    26    62 1   
    64    27    28 1   
    65    27    63 1   
    66    27    64 1   
    67    28    65 1   
    68    29    31 1   
    69    29    66 1   
    70    29    67 1   
    71    30    68 1   
    72    30    69 1   
    73    30    70 1   
    74    31    32 1   
    75    31    71 1   
    76    31    72 1   
    77    33    34 1   
    78    33    73 1   
    79    33    74 1   
    80    34    75 1   
    81    34    76 1   
@<TRIPOS>SUBSTRUCTURE
     1 6SB         1 TEMP              0 ****  ****    0 ROOT
