@<TRIPOS>MOLECULE
6SC
   38    41     1     0     0
SMALL
No Charge or Current Charge


@<TRIPOS>ATOM
      1 C01          1.9350     1.9480     0.0340 cc         1 6SC      -0.291900
      2 C02          1.2870     0.7560     0.0100 cd         1 6SC       0.461500
      3 N03         -0.0440     1.0690     0.0050 na         1 6SC       0.069900
      4 N04         -0.3500     2.4290     0.0230 nd         1 6SC      -0.616100
      5 C05          0.8910     2.9170     0.0400 cc         1 6SC       0.441500
      6 N06          1.9320    -0.4570    -0.0020 nd         1 6SC      -0.694000
      7 C07          1.0360    -1.4510    -0.0260 cc         1 6SC       0.506500
      8 C08         -0.4030    -1.2270    -0.0340 cc         1 6SC      -0.332000
      9 C09         -0.9690     0.0320    -0.0200 cd         1 6SC       0.403000
     10 N10         -2.3170     0.2880    -0.0320 nu         1 6SC      -0.956200
     11 C11          1.5990    -2.8340    -0.0270 ca         1 6SC      -0.163500
     12 C12         -3.4170    -0.6820    -0.0430 c3         1 6SC       0.275100
     13 C13         -4.7490     0.0540    -0.0300 ca         1 6SC      -0.082300
     14 C14         -5.3820     0.3980     1.1790 ca         1 6SC      -0.146000
     15 C15         -6.6100     1.0830     1.1450 ca         1 6SC       0.337400
     16 N16         -7.2250     1.4370    -0.0070 nb         1 6SC      -0.652000
     17 C17         -6.6160     1.1100    -1.1710 ca         1 6SC       0.337400
     18 C18         -5.3890     0.4260    -1.2270 ca         1 6SC      -0.146000
     19 C19          3.0070    -3.0390    -0.0930 ca         1 6SC      -0.071500
     20 C20          3.5630    -4.3290    -0.0910 ca         1 6SC      -0.123000
     21 C21          2.7350    -5.4550    -0.0180 ca         1 6SC      -0.090000
     22 C22          1.3470    -5.2860     0.0550 ca         1 6SC      -0.123000
     23 C23          0.7840    -3.9970     0.0530 ca         1 6SC      -0.071500
     24 Br24         3.7960     2.2690     0.0530 br         1 6SC      -0.020700
     25 H05          1.0160     3.9920     0.0570 h4         1 6SC       0.055800
     26 H08         -1.0710    -2.0700    -0.0640 ha         1 6SC       0.137000
     27 HN10        -2.5510     1.2840    -0.0150 hn         1 6SC       0.532000
     28 H121        -3.3580    -1.3160    -0.9380 h1         1 6SC       0.058200
     29 H122        -3.3550    -1.3400     0.8360 h1         1 6SC       0.058200
     30 H14         -4.9340     0.1430     2.1350 ha         1 6SC       0.129000
     31 H15         -7.1160     1.3570     2.0700 h4         1 6SC       0.024600
     32 H17         -7.1270     1.4070    -2.0870 h4         1 6SC       0.024600
     33 H18         -4.9460     0.1940    -2.1920 ha         1 6SC       0.129000
     34 H19          3.6950    -2.1980    -0.1530 ha         1 6SC       0.126000
     35 H20          4.6420    -4.4540    -0.1460 ha         1 6SC       0.115500
     36 H21          3.1660    -6.4540    -0.0160 ha         1 6SC       0.114000
     37 H22          0.6990    -6.1580     0.1170 ha         1 6SC       0.115500
     38 H23         -0.2960    -3.9420     0.1250 ha         1 6SC       0.126000
@<TRIPOS>BOND
     1     1     2 2   
     2     1     5 1   
     3     1    24 1   
     4     2     3 1   
     5     2     6 1   
     6     3     4 1   
     7     3     9 1   
     8     4     5 2   
     9     5    25 1   
    10     6     7 2   
    11     7     8 1   
    12     7    11 1   
    13     8     9 2   
    14     8    26 1   
    15     9    10 1   
    16    10    12 1   
    17    10    27 1   
    18    11    19 ar  
    19    11    23 ar  
    20    12    13 1   
    21    12    28 1   
    22    12    29 1   
    23    13    14 ar  
    24    13    18 ar  
    25    14    15 ar  
    26    14    30 1   
    27    15    16 ar  
    28    15    31 1   
    29    16    17 ar  
    30    17    18 ar  
    31    17    32 1   
    32    18    33 1   
    33    19    20 ar  
    34    19    34 1   
    35    20    21 ar  
    36    20    35 1   
    37    21    22 ar  
    38    21    36 1   
    39    22    23 ar  
    40    22    37 1   
    41    23    38 1   
@<TRIPOS>SUBSTRUCTURE
     1 6SC         1 TEMP              0 ****  ****    0 ROOT
