@<TRIPOS>MOLECULE
6SC
   38    41     1     0     0
SMALL
bcc


@<TRIPOS>ATOM
      1 C01          1.8850     2.0050    -0.1050 cc         1 6SC      -0.291900
      2 C02          1.3020     0.7440    -0.0590 cd         1 6SC       0.461500
      3 N03         -0.0460     1.0050     0.0270 na         1 6SC       0.019200
      4 N04         -0.3450     2.3080     0.0380 nd         1 6SC      -0.616100
      5 C05          0.8280     2.9150    -0.0420 cc         1 6SC       0.441500
      6 N06          1.8000    -0.4880    -0.0830 nd         1 6SC      -0.694000
      7 C07          0.9360    -1.4850    -0.0180 cc         1 6SC       0.571800
      8 C08         -0.4550    -1.2850     0.0750 cc         1 6SC      -0.415300
      9 C09         -0.9650     0.0010     0.0930 cd         1 6SC       0.315300
     10 N10         -2.2470     0.3550     0.1560 nu         1 6SC      -0.762600
     11 C11          1.5100    -2.8510    -0.0470 ca         1 6SC      -0.163500
     12 C12         -3.3180    -0.6070     0.3150 c3         1 6SC       0.275100
     13 C13         -4.6440     0.0670     0.1040 ca         1 6SC      -0.082300
     14 C14         -5.5400     0.2380     1.1480 ca         1 6SC      -0.229300
     15 C15         -6.7500     0.8710     0.8960 ca         1 6SC       0.402700
     16 N16         -7.1010     1.3290    -0.2970 nb         1 6SC      -0.652000
     17 C17         -6.2390     1.1670    -1.2960 ca         1 6SC       0.402700
     18 C18         -5.0080     0.5480    -1.1490 ca         1 6SC      -0.229300
     19 C19          2.8810    -3.0150    -0.2610 ca         1 6SC      -0.089500
     20 C20          3.4480    -4.2790    -0.2940 ca         1 6SC      -0.141000
     21 C21          2.6560    -5.4060    -0.1110 ca         1 6SC      -0.108000
     22 C22          1.2940    -5.2560     0.1070 ca         1 6SC      -0.141000
     23 C23          0.7260    -3.9910     0.1370 ca         1 6SC      -0.089500
     24 BR24         3.7020     2.3520    -0.2240 br         1 6SC      -0.020700
     25 H05          0.8830     3.9930    -0.0530 h4         1 6SC       0.055800
     26 H08         -1.1400    -2.1150     0.1320 ha         1 6SC       0.155000
     27 HN10        -2.4490     1.3350     0.2940 hn         1 6SC       0.476800
     28 H121        -3.1960    -1.4010    -0.4260 h1         1 6SC       0.058200
     29 H122        -3.2810    -1.0740     1.3030 h1         1 6SC       0.058200
     30 H14         -5.3070    -0.1100     2.1460 ha         1 6SC       0.147000
     31 H15         -7.4630     1.0120     1.7010 h4         1 6SC       0.024600
     32 H17         -6.5420     1.5440    -2.2650 h4         1 6SC       0.024600
     33 H18         -4.3510     0.4400    -2.0030 ha         1 6SC       0.147000
     34 H19          3.5040    -2.1430    -0.4040 ha         1 6SC       0.144000
     35 H20          4.5110    -4.3850    -0.4640 ha         1 6SC       0.133500
     36 H21          3.0980    -6.3940    -0.1370 ha         1 6SC       0.132000
     37 H22          0.6670    -6.1250     0.2570 ha         1 6SC       0.133500
     38 H23         -0.3380    -3.9140     0.3120 ha         1 6SC       0.144000
@<TRIPOS>BOND
     1     1     2 2   
     2     1     5 1   
     3     1    24 1   
     4     2     3 1   
     5     2     6 1   
     6     3     4 1   
     7     3     9 1   
     8     4     5 2   
     9     5    25 1   
    10     6     7 2   
    11     7     8 1   
    12     7    11 1   
    13     8     9 2   
    14     8    26 1   
    15     9    10 1   
    16    10    12 1   
    17    10    27 1   
    18    11    19 ar  
    19    11    23 ar  
    20    12    13 1   
    21    12    28 1   
    22    12    29 1   
    23    13    14 ar  
    24    13    18 ar  
    25    14    15 ar  
    26    14    30 1   
    27    15    16 ar  
    28    15    31 1   
    29    16    17 ar  
    30    17    18 ar  
    31    17    32 1   
    32    18    33 1   
    33    19    20 ar  
    34    19    34 1   
    35    20    21 ar  
    36    20    35 1   
    37    21    22 ar  
    38    21    36 1   
    39    22    23 ar  
    40    22    37 1   
    41    23    38 1   
@<TRIPOS>SUBSTRUCTURE
     1 6SC         1 TEMP              0 ****  ****    0 ROOT
