@<TRIPOS>MOLECULE
6SD
   25    26     1     0     0
SMALL
abcg2


@<TRIPOS>ATOM
      1 C1           4.9150     0.9300    -0.0400 c3         1 6SD       0.148900
      2 C2           2.8040    -0.1510    -0.0050 ca         1 6SD       0.144100
      3 C3           2.0880    -1.3510    -0.0080 ca         1 6SD      -0.178500
      4 C7           2.1060     1.0530     0.0090 ca         1 6SD      -0.178500
      5 C8          -1.4760    -0.1390     0.0310 cc         1 6SD       0.344500
      6 C9          -2.3440     0.9750     0.0740 cc         1 6SD      -0.281000
      7 C10         -3.6130     0.4270     0.0630 cd         1 6SD       0.207000
      8 N3          -4.8510     1.0120     0.1600 nv         1 6SD      -1.048000
      9 N1          -3.4420    -0.9070     0.0160 na         1 6SD      -0.037200
     10 N2          -2.1520    -1.2730    -0.0060 nd         1 6SD      -0.528800
     11 C5          -0.0100    -0.1410     0.0190 ca         1 6SD      -0.156500
     12 C4           0.7090    -1.3420     0.0050 ca         1 6SD      -0.052500
     13 C6           0.7160     1.0450     0.0210 ca         1 6SD      -0.052500
     14 O            4.1460    -0.2560    -0.0170 os         1 6SD      -0.341100
     15 H1           4.7110     1.5320    -0.9290 h1         1 6SD       0.039700
     16 H2           4.7450     1.5460     0.8470 h1         1 6SD       0.039700
     17 H3           5.9570     0.6220    -0.0560 h1         1 6SD       0.039700
     18 H4           2.6260    -2.2920    -0.0210 ha         1 6SD       0.121000
     19 H5           2.6220     2.0040     0.0110 ha         1 6SD       0.121000
     20 H6          -2.1010     2.0230     0.1110 ha         1 6SD       0.143000
     21 H7          -4.8600     1.9810    -0.1140 hn         1 6SD       0.448500
     22 H8          -5.5980     0.5110    -0.2990 hn         1 6SD       0.448500
     23 H9          -4.1600    -1.6120     0.0040 hn         1 6SD       0.368000
     24 H10          0.1760    -2.2840     0.0040 ha         1 6SD       0.121000
     25 H11          0.2020     1.9980     0.0290 ha         1 6SD       0.121000
@<TRIPOS>BOND
     1     1    14 1   
     2     1    15 1   
     3     1    16 1   
     4     1    17 1   
     5     2     3 ar  
     6     2     4 ar  
     7     2    14 1   
     8     3    12 ar  
     9     3    18 1   
    10     4    13 ar  
    11     4    19 1   
    12     5     6 1   
    13     5    10 2   
    14     5    11 1   
    15     6     7 2   
    16     6    20 1   
    17     7     8 1   
    18     7     9 1   
    19     8    21 1   
    20     8    22 1   
    21     9    10 1   
    22     9    23 1   
    23    11    12 ar  
    24    11    13 ar  
    25    12    24 1   
    26    13    25 1   
@<TRIPOS>SUBSTRUCTURE
     1 6SD         1 TEMP              0 ****  ****    0 ROOT
