@<TRIPOS>MOLECULE
6SD
   25    26     1     0     0
SMALL
No Charge or Current Charge


@<TRIPOS>ATOM
      1 C1           4.9890     0.9930    -0.0130 c3         1 6SD       0.148900
      2 C2           2.8080    -0.1630    -0.0080 ca         1 6SD       0.144100
      3 C3           2.1170    -1.3820    -0.0090 ca         1 6SD      -0.178500
      4 C7           2.0790     1.0430    -0.0030 ca         1 6SD      -0.178500
      5 C8          -1.5090    -0.2390     0.0070 cc         1 6SD       0.344500
      6 C9          -2.3510     0.8940     0.0130 cc         1 6SD      -0.281000
      7 C10         -3.6200     0.4410     0.0160 cd         1 6SD       0.207000
      8 N3          -4.8040     1.1190     0.0230 nv         1 6SD      -1.048000
      9 N1          -3.5240    -0.9460     0.0130 na         1 6SD      -0.037200
     10 N2          -2.1930    -1.3750     0.0070 nd         1 6SD      -0.528800
     11 C5          -0.0340    -0.2040     0.0020 ca         1 6SD      -0.156500
     12 C4           0.7120    -1.4070    -0.0040 ca         1 6SD      -0.052500
     13 C6           0.6730     1.0210     0.0020 ca         1 6SD      -0.052500
     14 O            4.1880    -0.2020    -0.0140 os         1 6SD      -0.341100
     15 H1           4.7820     1.6010    -0.9030 h1         1 6SD       0.039700
     16 H2           4.7890     1.5970     0.8810 h1         1 6SD       0.039700
     17 H3           6.0550     0.7360    -0.0180 h1         1 6SD       0.039700
     18 H4           2.6730    -2.3150    -0.0130 ha         1 6SD       0.121000
     19 H5           2.5830     2.0060    -0.0020 ha         1 6SD       0.121000
     20 H6          -2.0380     1.9290     0.0150 ha         1 6SD       0.143000
     21 H7          -4.8160     2.1360    -0.0420 hn         1 6SD       0.448500
     22 H8          -5.6960     0.6290    -0.0550 hn         1 6SD       0.448500
     23 H9          -4.3020    -1.6000     0.0150 hn         1 6SD       0.368000
     24 H10          0.2080    -2.3710    -0.0050 ha         1 6SD       0.121000
     25 H11          0.1450     1.9700     0.0060 ha         1 6SD       0.121000
@<TRIPOS>BOND
     1     1    14 1   
     2     1    15 1   
     3     1    16 1   
     4     1    17 1   
     5     2     3 ar  
     6     2     4 ar  
     7     2    14 1   
     8     3    12 ar  
     9     3    18 1   
    10     4    13 ar  
    11     4    19 1   
    12     5     6 1   
    13     5    10 2   
    14     5    11 1   
    15     6     7 2   
    16     6    20 1   
    17     7     8 1   
    18     7     9 1   
    19     8    21 1   
    20     8    22 1   
    21     9    10 1   
    22     9    23 1   
    23    11    12 ar  
    24    11    13 ar  
    25    12    24 1   
    26    13    25 1   
@<TRIPOS>SUBSTRUCTURE
     1 6SD         1 TEMP              0 ****  ****    0 ROOT
