@<TRIPOS>MOLECULE
6SE
    5     2     1     0     0
SMALL
bcc


@<TRIPOS>ATOM
      1 SE1         -1.6590    -0.1480     0.8130 s          1 6SE      -0.104000
      2 SE2         -0.0420     1.3760     0.1390 DU         1 6SE       0.000000
      3 SE3          1.6480     0.1000    -0.8150 s          1 6SE      -0.104000
      4 HSE1        -2.3890    -0.2120    -0.4480 hs         1 6SE       0.104000
      5 HSE3         2.3880    -0.1750     0.4120 hs         1 6SE       0.104000
@<TRIPOS>BOND
     1     1     4 1   
     2     3     5 1   
@<TRIPOS>SUBSTRUCTURE
     1 6SE         1 TEMP              0 ****  ****    0 ROOT
