@<TRIPOS>MOLECULE
6SF
   21    21     1     0     0
SMALL
bcc


@<TRIPOS>ATOM
      1 C1          -0.7530    -1.7050     0.0080 ca         1 6SF      -0.074000
      2 C2          -1.6800    -0.6790     0.0410 ca         1 6SF      -0.015600
      3 C3          -1.2320     0.6380    -0.0190 ca         1 6SF       0.065400
      4 C7           4.6830    -0.0570    -0.3470 c3         1 6SF       0.151800
      5 CL1         -3.3630    -1.0390     0.1550 cl         1 6SF      -0.083400
      6 CL          -2.3560     1.9440     0.0220 cl         1 6SF      -0.079400
      7 C4           0.1170     0.9190    -0.1090 ca         1 6SF      -0.160000
      8 C5           1.0490    -0.1200    -0.1430 ca         1 6SF       0.164100
      9 C            0.6050    -1.4390    -0.0830 ca         1 6SF      -0.213000
     10 O            2.3340     0.2470    -0.2360 os         1 6SF      -0.325900
     11 C6           3.3460    -0.7530    -0.2560 c3         1 6SF       0.139400
     12 N            4.9650     0.7120     0.8530 n8         1 6SF      -0.886800
     13 H1          -1.0910    -2.7320     0.0550 ha         1 6SF       0.148000
     14 H2           5.4380    -0.8390    -0.4460 h1         1 6SF       0.040200
     15 H3           4.7170     0.5260    -1.2780 h1         1 6SF       0.040200
     16 H4           0.4570     1.9460    -0.1570 ha         1 6SF       0.162000
     17 H5           1.2910    -2.2730    -0.1060 ha         1 6SF       0.143000
     18 H6           3.2110    -1.4160    -1.1170 h1         1 6SF       0.046200
     19 H7           3.3010    -1.3590     0.6550 h1         1 6SF       0.046200
     20 H8           5.8950     1.1030     0.7870 hn         1 6SF       0.346800
     21 H9           4.3390     1.5050     0.9070 hn         1 6SF       0.346800
@<TRIPOS>BOND
     1     1     2 ar  
     2     1     9 ar  
     3     1    13 1   
     4     2     3 ar  
     5     2     5 1   
     6     3     6 1   
     7     3     7 ar  
     8     4    11 1   
     9     4    12 1   
    10     4    14 1   
    11     4    15 1   
    12     7     8 ar  
    13     7    16 1   
    14     8     9 ar  
    15     8    10 1   
    16     9    17 1   
    17    10    11 1   
    18    11    18 1   
    19    11    19 1   
    20    12    20 1   
    21    12    21 1   
@<TRIPOS>SUBSTRUCTURE
     1 6SF         1 TEMP              0 ****  ****    0 ROOT
