@<TRIPOS>MOLECULE
6SF
   21    21     1     0     0
SMALL
No Charge or Current Charge


@<TRIPOS>ATOM
      1 C1          -0.8190    -1.7270    -0.0110 ca         1 6SF      -0.056000
      2 C2          -1.7440    -0.6700     0.0280 ca         1 6SF       0.076000
      3 C3          -1.2850     0.6630    -0.0080 ca         1 6SF       0.157000
      4 C7           4.7690    -0.0970    -0.3310 c3         1 6SF       0.151800
      5 Cl1         -3.4670    -1.0400     0.1220 cl         1 6SF      -0.175000
      6 Cl          -2.4150     2.0170     0.0390 cl         1 6SF      -0.171000
      7 C4           0.0930     0.9290    -0.0830 ca         1 6SF      -0.142000
      8 C5           1.0200    -0.1240    -0.1220 ca         1 6SF       0.164100
      9 C            0.5610    -1.4590    -0.0860 ca         1 6SF      -0.195000
     10 O            2.3590     0.1990    -0.1960 os         1 6SF      -0.349100
     11 C6           3.3920    -0.8070    -0.2430 c3         1 6SF       0.162600
     12 N            5.0700     0.7650     0.8440 n8         1 6SF      -0.997200
     13 H1          -1.1720    -2.7550     0.0170 ha         1 6SF       0.130000
     14 H2           5.5610    -0.8540    -0.4220 h1         1 6SF       0.040200
     15 H3           4.7900     0.5240    -1.2370 h1         1 6SF       0.040200
     16 H4           0.4440     1.9560    -0.1110 ha         1 6SF       0.144000
     17 H5           1.2520    -2.2960    -0.1140 ha         1 6SF       0.125000
     18 H6           3.2650    -1.4490    -1.1250 h1         1 6SF       0.046200
     19 H7           3.3640    -1.4390     0.6540 h1         1 6SF       0.046200
     20 H8           5.9100     1.3230     0.6450 hn         1 6SF       0.402000
     21 H9           4.3250     1.4700     0.9230 hn         1 6SF       0.402000
@<TRIPOS>BOND
     1     1     2 ar  
     2     1     9 ar  
     3     1    13 1   
     4     2     3 ar  
     5     2     5 1   
     6     3     6 1   
     7     3     7 ar  
     8     4    11 1   
     9     4    12 1   
    10     4    14 1   
    11     4    15 1   
    12     7     8 ar  
    13     7    16 1   
    14     8     9 ar  
    15     8    10 1   
    16     9    17 1   
    17    10    11 1   
    18    11    18 1   
    19    11    19 1   
    20    12    20 1   
    21    12    21 1   
@<TRIPOS>SUBSTRUCTURE
     1 6SF         1 TEMP              0 ****  ****    0 ROOT
