@<TRIPOS>MOLECULE
6SH
   71    74     1     0     0
SMALL
No Charge or Current Charge


@<TRIPOS>ATOM
      1 C4          -7.8510     0.5740     1.6400 c6         1 6SH      -0.071400
      2 C5          -9.2360     1.1710     1.9930 c6         1 6SH      -0.072900
      3 C6          -6.2990    -0.2750    -0.2130 c3         1 6SH      -0.073400
      4 N1          -3.5700    -0.6420    -1.5820 ns         1 6SH      -0.481900
      5 C7          -6.0820    -0.6980    -1.6880 c3         1 6SH      -0.085400
      6 C8          -4.7510    -1.4570    -1.9550 c3         1 6SH       0.029700
      7 N2           2.9170     2.2730     0.0550 ns         1 6SH      -0.497900
      8 C9          -4.6320    -1.9270    -3.4380 c          1 6SH       0.592100
      9 C11         -1.7300     0.2410    -0.1990 ca         1 6SH      -0.141600
     10 C12         -0.9940     0.2160     1.0080 ca         1 6SH      -0.074500
     11 N3           6.3860     0.3770    -1.3550 nc         1 6SH      -0.512800
     12 C13          0.0960     1.0810     1.2060 ca         1 6SH      -0.106500
     13 C14          0.4740     1.9910     0.2040 ca         1 6SH      -0.096300
     14 C15          1.6570     2.9220     0.4200 c3         1 6SH       0.147300
     15 N4           6.7990     0.0310    -0.0890 na         1 6SH       0.168000
     16 O2          -3.2410    -1.4900     0.5000 o          1 6SH      -0.600100
     17 O           -3.7440    -1.5670    -4.1960 o          1 6SH      -0.600100
     18 N           -5.5880    -2.7740    -3.8850 nt         1 6SH      -0.602000
     19 C3          -7.6970     0.3380     0.1100 c6         1 6SH      -0.060700
     20 C2          -7.9690     1.6600    -0.6670 c6         1 6SH      -0.071400
     21 C1          -9.3520     2.2600    -0.3090 c6         1 6SH      -0.072900
     22 C           -9.4930     2.4830     1.2150 c6         1 6SH      -0.074400
     23 C27         -1.3410     1.1610    -1.2040 ca         1 6SH      -0.074500
     24 C26         -0.2500     2.0240    -1.0010 ca         1 6SH      -0.106500
     25 C16          3.7830     1.6900     0.9460 c          1 6SH       0.670700
     26 O1           3.5840     1.6880     2.1530 o          1 6SH      -0.655100
     27 C17          4.9520     1.0770     0.3000 cd         1 6SH      -0.372600
     28 C25          5.9610     0.4440     0.9520 cc         1 6SH       0.330000
     29 N5           6.1620     0.2110     2.2850 nv         1 6SH      -1.067000
     30 C18          5.2570     1.0100    -1.0840 cd         1 6SH       0.302900
     31 C19          8.0120    -0.6420     0.0870 ca         1 6SH       0.005800
     32 C24          8.2170    -1.9020    -0.5120 ca         1 6SH      -0.105000
     33 C23          9.4370    -2.5810    -0.3400 ca         1 6SH      -0.103000
     34 C22         10.4610    -2.0020     0.4290 ca         1 6SH      -0.106000
     35 C21         10.2670    -0.7440     1.0240 ca         1 6SH      -0.103000
     36 C20          9.0470    -0.0650     0.8520 ca         1 6SH      -0.105000
     37 H1          -7.0600     1.2510     1.9940 hc         1 6SH       0.037950
     38 H2          -7.7150    -0.3720     2.1820 hc         1 6SH       0.037950
     39 H3         -10.0240     0.4410     1.7600 hc         1 6SH       0.039200
     40 H4          -9.2950     1.3600     3.0730 hc         1 6SH       0.039200
     41 H5          -6.1450    -1.1600     0.4170 hc         1 6SH       0.043700
     42 H6          -5.5190     0.4420     0.0720 hc         1 6SH       0.043700
     43 H7          -3.2000    -0.0040    -2.2740 hn         1 6SH       0.322500
     44 H8          -6.9250    -1.3300    -1.9910 hc         1 6SH       0.054200
     45 H9          -6.1080     0.1910    -2.3310 hc         1 6SH       0.054200
     46 H10         -4.7520    -2.3730    -1.3500 h1         1 6SH       0.076700
     47 H11          3.1610     2.2190    -0.9240 hn         1 6SH       0.312500
     48 H12         -1.2650    -0.4780     1.8010 ha         1 6SH       0.124500
     49 H13          0.6490     1.0410     2.1410 ha         1 6SH       0.123000
     50 H14          1.6910     3.2450     1.4690 h1         1 6SH       0.064700
     51 H15          1.5360     3.8240    -0.1960 h1         1 6SH       0.064700
     52 H16         -6.3250    -3.0820    -3.2670 hn         1 6SH       0.314500
     53 H17         -5.5500    -3.1000    -4.8390 hn         1 6SH       0.314500
     54 H18         -8.4430    -0.4090    -0.1980 hc         1 6SH       0.045700
     55 H19         -7.1810     2.3930    -0.4440 hc         1 6SH       0.037950
     56 H20         -7.9340     1.4820    -1.7500 hc         1 6SH       0.037950
     57 H21         -9.4930     3.2120    -0.8390 hc         1 6SH       0.039200
     58 H22        -10.1480     1.5880    -0.6600 hc         1 6SH       0.039200
     59 H23        -10.4970     2.8640     1.4460 hc         1 6SH       0.038700
     60 H24         -8.7820     3.2540     1.5440 hc         1 6SH       0.038700
     61 H25         -1.8720     1.2250    -2.1500 ha         1 6SH       0.124500
     62 H26          0.0330     2.7220    -1.7870 ha         1 6SH       0.123000
     63 H27          6.8360    -0.4920     2.5780 hn         1 6SH       0.490000
     64 H28          5.4020     0.4340     2.9280 hn         1 6SH       0.490000
     65 H29          4.6800     1.4070    -1.9100 h4         1 6SH       0.033100
     66 H30          7.4290    -2.3560    -1.1100 ha         1 6SH       0.135000
     67 H31          9.5880    -3.5540    -0.8030 ha         1 6SH       0.120000
     68 H32         11.4050    -2.5270     0.5610 ha         1 6SH       0.118000
     69 H33         11.0610    -0.2950     1.6160 ha         1 6SH       0.120000
     70 H34          8.9070     0.9120     1.3110 ha         1 6SH       0.135000
     71 C10         -2.9020    -0.7050    -0.3760 c          1 6SH       0.614700
@<TRIPOS>BOND
     1     1     2 1   
     2     1    19 1   
     3     1    37 1   
     4     1    38 1   
     5     2    22 1   
     6     2    39 1   
     7     2    40 1   
     8     3     5 1   
     9     3    19 1   
    10     3    41 1   
    11     3    42 1   
    12     4     6 1   
    13     4    43 1   
    14     4    71 1   
    15     5     6 1   
    16     5    44 1   
    17     5    45 1   
    18     6     8 1   
    19     6    46 1   
    20     7    14 1   
    21     7    25 1   
    22     7    47 1   
    23     8    17 2   
    24     8    18 1   
    25     9    10 ar  
    26     9    23 ar  
    27     9    71 1   
    28    10    12 ar  
    29    10    48 1   
    30    11    15 1   
    31    11    30 2   
    32    12    13 ar  
    33    12    49 1   
    34    13    14 1   
    35    13    24 ar  
    36    14    50 1   
    37    14    51 1   
    38    15    28 1   
    39    15    31 1   
    40    16    71 2   
    41    18    52 1   
    42    18    53 1   
    43    19    20 1   
    44    19    54 1   
    45    20    21 1   
    46    20    55 1   
    47    20    56 1   
    48    21    22 1   
    49    21    57 1   
    50    21    58 1   
    51    22    59 1   
    52    22    60 1   
    53    23    24 ar  
    54    23    61 1   
    55    24    62 1   
    56    25    26 2   
    57    25    27 1   
    58    27    28 2   
    59    27    30 1   
    60    28    29 1   
    61    29    63 1   
    62    29    64 1   
    63    30    65 1   
    64    31    32 ar  
    65    31    36 ar  
    66    32    33 ar  
    67    32    66 1   
    68    33    34 ar  
    69    33    67 1   
    70    34    35 ar  
    71    34    68 1   
    72    35    36 ar  
    73    35    69 1   
    74    36    70 1   
@<TRIPOS>SUBSTRUCTURE
     1 6SH         1 TEMP              0 ****  ****    0 ROOT
