@<TRIPOS>MOLECULE
6SH
   71    74     1     0     0
SMALL
bcc


@<TRIPOS>ATOM
      1 C4          -8.2610     1.7130    -0.2380 c6         1 6SH      -0.071400
      2 C5          -9.1390     2.6020    -1.1130 c6         1 6SH      -0.072900
      3 C6          -6.4570    -0.0280    -0.1400 c3         1 6SH      -0.073400
      4 N1          -3.7200    -1.0690     0.5760 ns         1 6SH      -0.548900
      5 C7          -5.6830    -1.1320    -0.8520 c3         1 6SH      -0.085400
      6 C8          -4.7780    -1.9200     0.0980 c3         1 6SH       0.029700
      7 N2           2.5430     2.0060     1.8690 ns         1 6SH      -0.564900
      8 C9          -4.2000    -3.1400    -0.6240 c          1 6SH       0.659100
      9 C11         -1.7740    -0.5350     1.8940 ca         1 6SH      -0.141600
     10 C12         -0.6180    -1.0560     2.4730 ca         1 6SH      -0.092500
     11 N3           5.3070     1.5360    -1.3390 nc         1 6SH      -0.512800
     12 C13          0.4380    -0.2250     2.8040 ca         1 6SH      -0.124500
     13 C14          0.3590     1.1490     2.5820 ca         1 6SH      -0.096300
     14 C15          1.5280     2.0490     2.8990 c3         1 6SH       0.147300
     15 N4           6.0930     0.6640    -0.6570 na         1 6SH       0.117300
     16 O2          -3.0130    -2.5490     2.1140 o          1 6SH      -0.600100
     17 O           -3.1500    -3.0780    -1.2420 o          1 6SH      -0.600100
     18 N           -4.9660    -4.2360    -0.5600 nt         1 6SH      -0.669000
     19 C3          -7.3350     0.8180    -1.0630 c6         1 6SH      -0.060700
     20 C2          -6.5080     1.6660    -2.0300 c6         1 6SH      -0.071400
     21 C1          -7.3820     2.5590    -2.9080 c6         1 6SH      -0.072900
     22 C           -8.2970     3.4420    -2.0670 c6         1 6SH      -0.074400
     23 C27         -1.8630     0.8390     1.6880 ca         1 6SH      -0.092500
     24 C26         -0.8070     1.6690     2.0320 ca         1 6SH      -0.124500
     25 C16          3.6050     1.1740     1.9010 c          1 6SH       0.737700
     26 O1           3.8470     0.4530     2.8710 o          1 6SH      -0.655100
     27 C17          4.4650     1.1770     0.7260 cd         1 6SH      -0.437900
     28 C25          5.6210     0.4060     0.5830 cc         1 6SH       0.242300
     29 N5           6.2340    -0.4200     1.4610 nv         1 6SH      -0.818200
     30 C18          4.3460     1.8450    -0.5150 cd         1 6SH       0.368200
     31 C19          7.2200     0.0970    -1.2900 ca         1 6SH       0.005800
     32 C24          7.0850    -0.4340    -2.5670 ca         1 6SH      -0.123000
     33 C23          8.1900    -0.9790    -3.2010 ca         1 6SH      -0.121000
     34 C22          9.4230    -1.0080    -2.5620 ca         1 6SH      -0.124000
     35 C21          9.5500    -0.4780    -1.2860 ca         1 6SH      -0.121000
     36 C20          8.4530     0.0860    -0.6480 ca         1 6SH      -0.123000
     37 H1          -7.6520     2.3430     0.4220 hc         1 6SH       0.037950
     38 H2          -8.8840     1.0940     0.4150 hc         1 6SH       0.037950
     39 H3          -9.8260     1.9750    -1.6920 hc         1 6SH       0.039200
     40 H4          -9.7620     3.2460    -0.4870 hc         1 6SH       0.039200
     41 H5          -7.0890    -0.4920     0.6250 hc         1 6SH       0.043700
     42 H6          -5.7710     0.6360     0.3980 hc         1 6SH       0.043700
     43 H7          -3.4460    -0.2970    -0.0110 hn         1 6SH       0.322500
     44 H8          -6.3910    -1.8230    -1.3150 hc         1 6SH       0.054200
     45 H9          -5.0720    -0.7300    -1.6660 hc         1 6SH       0.054200
     46 H10         -5.3740    -2.2560     0.9530 h1         1 6SH       0.076700
     47 H11          2.3600     2.5370     1.0340 hn         1 6SH       0.312500
     48 H12         -0.5400    -2.1190     2.6560 ha         1 6SH       0.142500
     49 H13          1.3340    -0.6470     3.2410 ha         1 6SH       0.141000
     50 H14          1.9790     1.7700     3.8490 h1         1 6SH       0.064700
     51 H15          1.1880     3.0800     2.9950 h1         1 6SH       0.064700
     52 H16         -5.8140    -4.2610    -0.0200 hn         1 6SH       0.314500
     53 H17         -4.7170    -5.0690    -1.0680 hn         1 6SH       0.314500
     54 H18         -7.9650     0.1390    -1.6550 hc         1 6SH       0.045700
     55 H19         -5.8180     2.2920    -1.4500 hc         1 6SH       0.037950
     56 H20         -5.8860     1.0270    -2.6630 hc         1 6SH       0.037950
     57 H21         -6.7530     3.1720    -3.5580 hc         1 6SH       0.039200
     58 H22         -7.9910     1.9310    -3.5680 hc         1 6SH       0.039200
     59 H23         -8.9410     4.0450    -2.7120 hc         1 6SH       0.038700
     60 H24         -7.6890     4.1470    -1.4880 hc         1 6SH       0.038700
     61 H25         -2.7630     1.2860     1.2840 ha         1 6SH       0.142500
     62 H26         -0.8980     2.7370     1.8720 ha         1 6SH       0.141000
     63 H27          6.7900    -1.1740     1.0870 hn         1 6SH       0.434800
     64 H28          5.6610    -0.6800     2.2490 hn         1 6SH       0.434800
     65 H29          3.5820     2.5430    -0.8280 h4         1 6SH       0.033100
     66 H30          6.1210    -0.4220    -3.0590 ha         1 6SH       0.153000
     67 H31          8.0830    -1.3920    -4.1960 ha         1 6SH       0.138000
     68 H32         10.2820    -1.4400    -3.0570 ha         1 6SH       0.136000
     69 H33         10.5090    -0.4850    -0.7860 ha         1 6SH       0.138000
     70 H34          8.5660     0.5230     0.3350 ha         1 6SH       0.153000
     71 C10         -2.8790    -1.4750     1.5450 c          1 6SH       0.681700
@<TRIPOS>BOND
     1     1     2 1   
     2     1    19 1   
     3     1    37 1   
     4     1    38 1   
     5     2    22 1   
     6     2    39 1   
     7     2    40 1   
     8     3     5 1   
     9     3    19 1   
    10     3    41 1   
    11     3    42 1   
    12     4     6 1   
    13     4    43 1   
    14     4    71 1   
    15     5     6 1   
    16     5    44 1   
    17     5    45 1   
    18     6     8 1   
    19     6    46 1   
    20     7    14 1   
    21     7    25 1   
    22     7    47 1   
    23     8    17 2   
    24     8    18 1   
    25     9    10 ar  
    26     9    23 ar  
    27     9    71 1   
    28    10    12 ar  
    29    10    48 1   
    30    11    15 1   
    31    11    30 2   
    32    12    13 ar  
    33    12    49 1   
    34    13    14 1   
    35    13    24 ar  
    36    14    50 1   
    37    14    51 1   
    38    15    28 1   
    39    15    31 1   
    40    16    71 2   
    41    18    52 1   
    42    18    53 1   
    43    19    20 1   
    44    19    54 1   
    45    20    21 1   
    46    20    55 1   
    47    20    56 1   
    48    21    22 1   
    49    21    57 1   
    50    21    58 1   
    51    22    59 1   
    52    22    60 1   
    53    23    24 ar  
    54    23    61 1   
    55    24    62 1   
    56    25    26 2   
    57    25    27 1   
    58    27    28 2   
    59    27    30 1   
    60    28    29 1   
    61    29    63 1   
    62    29    64 1   
    63    30    65 1   
    64    31    32 ar  
    65    31    36 ar  
    66    32    33 ar  
    67    32    66 1   
    68    33    34 ar  
    69    33    67 1   
    70    34    35 ar  
    71    34    68 1   
    72    35    36 ar  
    73    35    69 1   
    74    36    70 1   
@<TRIPOS>SUBSTRUCTURE
     1 6SH         1 TEMP              0 ****  ****    0 ROOT
