@<TRIPOS>MOLECULE
6SI
   48    50     1     0     0
SMALL
abcg2


@<TRIPOS>ATOM
      1 O1          21.8990     8.1930    58.3060 o          1 6SI      -0.556100
      2 C2          23.6930     8.7620    51.4490 c6         1 6SI       0.090000
      3 C3          22.5390     9.4900    52.1410 c6         1 6SI      -0.121700
      4 C4          22.4770     9.0670    53.5750 cc         1 6SI       0.324300
      5 C5          21.8440     9.1980    55.6820 cd         1 6SI       0.567300
      6 C6          21.2270     9.1840    58.0460 c          1 6SI       0.604100
      7 C7          20.3330     9.8840    59.0480 c5         1 6SI      -0.155700
      8 C8          18.9330     9.2170    59.0570 c5         1 6SI      -0.087400
      9 C9          19.1040     8.0400    60.0140 c5         1 6SI       0.236800
     10 C11         20.8230     9.6970    60.4880 c5         1 6SI       0.250800
     11 C13         23.9710     7.0550    53.2010 c6         1 6SI       0.183300
     12 N6          20.0750     8.5450    60.9820 nh         1 6SI      -0.790600
     13 N7          21.1580     8.4580    63.0290 n2         1 6SI      -0.859100
     14 N5          21.1950     9.7110    56.7860 ns         1 6SI      -0.472400
     15 N4          21.7380     9.7580    54.5110 nc         1 6SI      -0.702000
     16 S1          22.8540     7.7770    55.7420 ss         1 6SI       0.104600
     17 C12         23.1380     7.9760    54.0410 cd         1 6SI      -0.335300
     18 N3          23.6830     7.3360    51.7930 n          1 6SI      -0.357800
     19 C1          23.3430     6.3400    50.9670 c          1 6SI       0.605100
     20 O           23.3420     5.1480    51.3160 o          1 6SI      -0.657100
     21 C           22.9880     6.6920    49.5250 c3         1 6SI       0.020800
     22 N2          22.2220     5.6090    48.9030 n7         1 6SI      -0.577200
     23 N1          23.0150     4.4150    48.7870 ny         1 6SI      -0.496000
     24 N           22.1920     3.3580    48.2770 n8         1 6SI      -0.724000
     25 H2          23.6590     8.8940    50.3730 h1         1 6SI       0.064700
     26 H3          22.6940    10.5690    52.0690 hc         1 6SI       0.078200
     27 H4          21.5930     9.2650    51.6380 hc         1 6SI       0.078200
     28 H5          20.2580    10.9380    58.7870 hc         1 6SI       0.077700
     29 H6          18.2120     9.9300    59.4580 hc         1 6SI       0.064200
     30 H7          18.6000     8.9120    58.0660 hc         1 6SI       0.064200
     31 H8          18.1720     7.7630    60.5060 h1         1 6SI       0.051700
     32 H9          19.4940     7.1630    59.4900 h1         1 6SI       0.051700
     33 H11         21.8970     9.5150    60.5400 h1         1 6SI       0.070700
     34 H12         20.6010    10.5820    61.0900 h1         1 6SI       0.070700
     35 H13         23.7400     6.0110    53.3970 h1         1 6SI       0.084200
     36 H14         25.0400     7.2040    53.3870 h1         1 6SI       0.084200
     37 H15         21.1280     7.9020    63.8790 hn         1 6SI       0.385400
     38 H16         20.6340    10.5350    56.6110 hn         1 6SI       0.347500
     39 H17         23.9130     6.9280    48.9810 h1         1 6SI       0.103200
     40 H18         22.3410     7.5650    49.4740 h1         1 6SI       0.103200
     41 H19         22.8130     2.5740    48.0930 hn         1 6SI       0.462500
     42 H23         21.5680     3.0920    49.0350 hn         1 6SI       0.462500
     43 H22         21.9590     5.8680    47.9550 hn         1 6SI       0.471000
     44 H21         23.8120     4.5290    48.1500 hn         1 6SI       0.525000
     45 H20         23.3560     4.2640    49.7610 hn         1 6SI       0.525000
     46 C10         20.2820     8.0070    62.1960 c2         1 6SI       0.644100
     47 H1          24.6460     9.1660    51.7960 h1         1 6SI       0.064700
     48 H10         19.6320     7.1560    62.4060 h5         1 6SI      -0.027200
@<TRIPOS>BOND
     1     1     6 2   
     2     2     3 1   
     3     2    18 1   
     4     2    25 1   
     5     2    47 1   
     6     3     4 1   
     7     3    26 1   
     8     3    27 1   
     9     4    15 1   
    10     4    17 2   
    11     5    14 1   
    12     5    15 2   
    13     5    16 1   
    14     6     7 1   
    15     6    14 1   
    16     7     8 1   
    17     7    10 1   
    18     7    28 1   
    19     8     9 1   
    20     8    29 1   
    21     8    30 1   
    22     9    12 1   
    23     9    31 1   
    24     9    32 1   
    25    10    12 1   
    26    10    33 1   
    27    10    34 1   
    28    11    17 1   
    29    11    18 1   
    30    11    35 1   
    31    11    36 1   
    32    12    46 1   
    33    13    37 1   
    34    13    46 2   
    35    14    38 1   
    36    16    17 1   
    37    18    19 1   
    38    19    20 2   
    39    19    21 1   
    40    21    22 1   
    41    21    39 1   
    42    21    40 1   
    43    22    23 1   
    44    22    43 1   
    45    23    24 1   
    46    23    44 1   
    47    23    45 1   
    48    24    41 1   
    49    24    42 1   
    50    46    48 1   
@<TRIPOS>SUBSTRUCTURE
     1 6SI         1 TEMP              0 ****  ****    0 ROOT
