@<TRIPOS>MOLECULE
6SI
   48    50     1     0     0
SMALL
No Charge or Current Charge


@<TRIPOS>ATOM
      1 O1          20.9530     7.6140    58.4970 o          1 6SI      -0.556100
      2 C2          23.3960     8.4950    51.6600 c6         1 6SI       0.090000
      3 C3          22.3310     9.3290    52.4060 c6         1 6SI      -0.121700
      4 C4          22.0920     8.7530    53.7680 cc         1 6SI       0.324300
      5 C5          21.4230     8.7640    55.8650 cd         1 6SI       0.567300
      6 C6          20.6740     8.7690    58.2180 c          1 6SI       0.604100
      7 C7          20.0340     9.8240    59.1580 c5         1 6SI      -0.155700
      8 C8          18.6570     9.3210    59.7150 c5         1 6SI      -0.087400
      9 C9          19.0650     8.4340    60.9160 c5         1 6SI       0.236800
     10 C11         20.9290     9.9870    60.4250 c5         1 6SI       0.250800
     11 C13         23.0420     6.4780    53.1070 c6         1 6SI       0.183300
     12 N6          20.1550     9.2590    61.4650 nh         1 6SI      -0.790600
     13 N7          21.8580     9.3280    63.0070 n2         1 6SI      -0.859100
     14 N5          20.8850     9.3330    56.9840 ns         1 6SI      -0.472400
     15 N4          21.5320     9.4980    54.7690 nc         1 6SI      -0.702000
     16 S1          22.0070     7.0930    55.7340 ss         1 6SI       0.104600
     17 C12         22.4130     7.4600    54.0700 cd         1 6SI      -0.335300
     18 N3          23.1010     7.0330    51.7250 n          1 6SI      -0.357800
     19 C1          23.3090     6.1630    50.6300 c          1 6SI       0.605100
     20 O           23.4900     4.9600    50.8210 o          1 6SI      -0.657100
     21 C           23.2540     6.7470    49.1810 c3         1 6SI       0.020800
     22 N2          22.8980     5.7650    48.0980 n7         1 6SI      -0.577200
     23 N1          23.7660     4.5620    48.1130 ny         1 6SI      -0.496000
     24 N           23.2040     3.6270    47.0690 n8         1 6SI      -0.724000
     25 H2          23.4740     8.8560    50.6270 h1         1 6SI       0.064700
     26 H3          22.6560    10.3750    52.4720 hc         1 6SI       0.078200
     27 H4          21.3950     9.3240    51.8320 hc         1 6SI       0.078200
     28 H5          19.9180    10.7810    58.6370 hc         1 6SI       0.077700
     29 H6          18.0460    10.1650    60.0570 hc         1 6SI       0.064200
     30 H7          18.0630     8.7760    58.9730 hc         1 6SI       0.064200
     31 H8          18.2390     8.2930    61.6270 h1         1 6SI       0.051700
     32 H9          19.4220     7.4440    60.5970 h1         1 6SI       0.051700
     33 H11         21.9310     9.5590    60.2660 h1         1 6SI       0.070700
     34 H12         21.0600    11.0430    60.7000 h1         1 6SI       0.070700
     35 H13         22.4580     5.5460    53.1020 h1         1 6SI       0.084200
     36 H14         24.0600     6.2230    53.4360 h1         1 6SI       0.084200
     37 H15         22.2060     8.7780    63.8060 hn         1 6SI       0.385400
     38 H16         20.5980    10.2950    56.8960 hn         1 6SI       0.347500
     39 H17         24.2300     7.2130    48.9930 h1         1 6SI       0.103200
     40 H18         22.5080     7.5530    49.1920 h1         1 6SI       0.103200
     41 H19         23.6740     2.7030    47.0730 hn         1 6SI       0.462500
     42 H23         22.2210     3.3800    47.2800 hn         1 6SI       0.462500
     43 H22         22.9370     6.2260    47.1670 hn         1 6SI       0.471000
     44 H21         24.7960     4.7900    47.9770 hn         1 6SI       0.525000
     45 H20         23.8000     4.1590    49.1040 hn         1 6SI       0.525000
     46 C10         20.8530     8.7090    62.5200 c2         1 6SI       0.644100
     47 H1          24.3760     8.6700    52.1290 h1         1 6SI       0.064700
     48 H10         20.4470     7.7860    62.9380 h5         1 6SI      -0.027200
@<TRIPOS>BOND
     1     1     6 2   
     2     2     3 1   
     3     2    18 1   
     4     2    25 1   
     5     2    47 1   
     6     3     4 1   
     7     3    26 1   
     8     3    27 1   
     9     4    15 1   
    10     4    17 2   
    11     5    14 1   
    12     5    15 2   
    13     5    16 1   
    14     6     7 1   
    15     6    14 1   
    16     7     8 1   
    17     7    10 1   
    18     7    28 1   
    19     8     9 1   
    20     8    29 1   
    21     8    30 1   
    22     9    12 1   
    23     9    31 1   
    24     9    32 1   
    25    10    12 1   
    26    10    33 1   
    27    10    34 1   
    28    11    17 1   
    29    11    18 1   
    30    11    35 1   
    31    11    36 1   
    32    12    46 1   
    33    13    37 1   
    34    13    46 2   
    35    14    38 1   
    36    16    17 1   
    37    18    19 1   
    38    19    20 2   
    39    19    21 1   
    40    21    22 1   
    41    21    39 1   
    42    21    40 1   
    43    22    23 1   
    44    22    43 1   
    45    23    24 1   
    46    23    44 1   
    47    23    45 1   
    48    24    41 1   
    49    24    42 1   
    50    46    48 1   
@<TRIPOS>SUBSTRUCTURE
     1 6SI         1 TEMP              0 ****  ****    0 ROOT
