@<TRIPOS>MOLECULE
6SJ
   57    62     1     0     0
SMALL
No Charge or Current Charge


@<TRIPOS>ATOM
      1 C4          -4.2030     8.8270    -1.2760 ca         1 6SJ      -0.106000
      2 C5          -5.5150     9.2400    -0.9820 ca         1 6SJ      -0.090000
      3 C6          -5.9930    10.5040    -1.4120 ca         1 6SJ      -0.049300
      4 C7          -5.1110    11.3300    -2.1420 ca         1 6SJ      -0.088000
      5 C8          -7.4100    11.0520    -1.1230 c5         1 6SJ      -0.040400
      6 C10         -8.5040     9.9330    -0.9350 c5         1 6SJ       0.182500
      7 N12         -9.2900     9.7270    -2.1940 n3         1 6SJ      -0.687600
      8 C13        -10.2520    10.8540    -2.2520 c5         1 6SJ       0.174800
      9 C15         -9.5200    10.6080     0.0670 c5         1 6SJ       0.180500
     10 C20        -11.2480    14.1410     2.6210 cx         1 6SJ      -0.133400
     11 C21        -11.3260    14.1850     1.1120 cx         1 6SJ      -0.133400
     12 C22         -7.4540    11.7290     0.2800 c5         1 6SJ       0.187500
     13 C26         -5.6050    12.9790     1.1030 ca         1 6SJ      -0.014000
     14 C28         -4.8820    15.1750     0.4560 ca         1 6SJ       0.156000
     15 C2          -3.8020    10.9180    -2.4340 ca         1 6SJ       0.127000
     16 C3          -3.3450     9.6660    -2.0030 ca         1 6SJ      -0.108000
     17 C14        -10.8010    10.8460    -0.8030 c5         1 6SJ      -0.075400
     18 N17         -8.9260    11.9400     0.4300 n3         1 6SJ      -0.732600
     19 C18         -9.3490    12.5400     1.7210 c3         1 6SJ       0.211800
     20 C19        -10.8170    12.9420     1.8070 cx         1 6SJ      -0.112700
     21 C23         -6.6910    10.9040     1.4170 c          1 6SJ       0.536000
     22 O24         -6.9310     9.8150     1.9290 o          1 6SJ      -0.525000
     23 N25         -5.6590    11.7550     1.7620 ns         1 6SJ      -0.150000
     24 C27         -4.6930    14.0290     1.2530 ca         1 6SJ      -0.150000
     25 Cl2         -3.7670    16.5270     0.5980 cl         1 6SJ      -0.226000
     26 C30         -5.9630    15.2490    -0.4520 ca         1 6SJ      -0.142000
     27 C31         -6.8680    14.1730    -0.5800 ca         1 6SJ      -0.033000
     28 C32         -6.6590    13.0330     0.2130 ca         1 6SJ      -0.123300
     29 C33         -8.5250     9.4100    -3.4460 c3         1 6SJ       0.034800
     30 C34         -9.3380     9.0140    -4.7300 c          1 6SJ       0.712000
     31 O35         -9.6120     7.8330    -4.9090 o          1 6SJ      -0.728000
     32 O36         -9.6560     9.8980    -5.5170 o          1 6SJ      -0.728000
     33 H1          -3.8510     7.8560    -0.9360 ha         1 6SJ       0.112000
     34 H2          -6.1350     8.5630    -0.4030 ha         1 6SJ       0.132000
     35 H3          -5.4410    12.3070    -2.4850 ha         1 6SJ       0.129000
     36 H4          -7.7030    11.7760    -1.8890 hc         1 6SJ       0.081700
     37 H5          -8.1320     8.9910    -0.5170 h1         1 6SJ       0.077700
     38 H7          -9.7710    11.8100    -2.4970 h1         1 6SJ       0.042700
     39 H8         -11.0510    10.6820    -2.9870 h1         1 6SJ       0.042700
     40 H9          -9.7150     9.9790     0.9470 h1         1 6SJ       0.049700
     41 H12        -10.6030    14.8000     0.5820 hc         1 6SJ       0.067950
     42 H13        -12.3100    14.1380     0.6510 hc         1 6SJ       0.067950
     43 H14         -2.3300     9.3480    -2.2290 ha         1 6SJ       0.120000
     44 H15        -11.3390    11.7680    -0.5720 hc         1 6SJ       0.047200
     45 H16        -11.5100    10.0210    -0.6680 hc         1 6SJ       0.047200
     46 H18         -9.1360    11.8430     2.5430 h1         1 6SJ       0.034200
     47 H19         -8.7460    13.4390     1.9100 h1         1 6SJ       0.034200
     48 H20        -11.4820    12.0820     1.8310 hc         1 6SJ       0.083700
     49 H21         -4.9940    11.5160     2.4860 hn         1 6SJ       0.165000
     50 H22         -3.8690    13.9650     1.9580 ha         1 6SJ       0.132000
     51 H23         -6.0990    16.1430    -1.0560 ha         1 6SJ       0.130000
     52 H24         -7.7050    14.2240    -1.2720 ha         1 6SJ       0.139000
     53 H25         -7.8350     8.5820    -3.2380 h1         1 6SJ       0.018200
     54 H26         -7.8990    10.2700    -3.7220 h1         1 6SJ       0.018200
     55 Cl1         -2.7310    11.9800    -3.3380 cl         1 6SJ      -0.234000
     56 H10        -10.4770    14.7370     3.1040 hc         1 6SJ       0.067950
     57 H11        -12.1810    14.0680     3.1750 hc         1 6SJ       0.067950
@<TRIPOS>BOND
     1     1     2 ar  
     2     1    16 ar  
     3     1    33 1   
     4     2     3 ar  
     5     2    34 1   
     6     3     4 ar  
     7     3     5 1   
     8     4    15 ar  
     9     4    35 1   
    10     5     6 1   
    11     5    12 1   
    12     5    36 1   
    13     6     7 1   
    14     6     9 1   
    15     6    37 1   
    16     7     8 1   
    17     7    29 1   
    18     8    17 1   
    19     8    38 1   
    20     8    39 1   
    21     9    17 1   
    22     9    18 1   
    23     9    40 1   
    24    10    11 1   
    25    10    20 1   
    26    10    56 1   
    27    10    57 1   
    28    11    20 1   
    29    11    41 1   
    30    11    42 1   
    31    12    18 1   
    32    12    21 1   
    33    12    28 1   
    34    13    23 1   
    35    13    24 ar  
    36    13    28 ar  
    37    14    24 ar  
    38    14    25 1   
    39    14    26 ar  
    40    15    16 ar  
    41    15    55 1   
    42    16    43 1   
    43    17    44 1   
    44    17    45 1   
    45    18    19 1   
    46    19    20 1   
    47    19    46 1   
    48    19    47 1   
    49    20    48 1   
    50    21    22 2   
    51    21    23 1   
    52    23    49 1   
    53    24    50 1   
    54    26    27 ar  
    55    26    51 1   
    56    27    28 ar  
    57    27    52 1   
    58    29    30 1   
    59    29    53 1   
    60    29    54 1   
    61    30    31 1   
    62    30    32 1   
@<TRIPOS>SUBSTRUCTURE
     1 6SJ         1 TEMP              0 ****  ****    0 ROOT
