@<TRIPOS>MOLECULE
6SJ
   57    62     1     0     0
SMALL
abcg2


@<TRIPOS>ATOM
      1 C4          -4.2210     8.9210    -1.3040 ca         1 6SJ      -0.106000
      2 C5          -5.5180     9.3090    -0.9880 ca         1 6SJ      -0.090000
      3 C6          -6.0250    10.5280    -1.4400 ca         1 6SJ      -0.049300
      4 C7          -5.2040    11.3470    -2.2170 ca         1 6SJ      -0.088000
      5 C8          -7.4030    11.0250    -1.0910 c5         1 6SJ      -0.040400
      6 C10         -8.5560     9.9960    -0.9840 c5         1 6SJ       0.182500
      7 N12         -9.2820     9.7200    -2.2210 n3         1 6SJ      -0.687600
      8 C13        -10.2390    10.8100    -2.3890 c5         1 6SJ       0.174800
      9 C15         -9.5890    10.6890    -0.0630 c5         1 6SJ       0.180500
     10 C20        -11.1130    14.0030     2.7310 cx         1 6SJ      -0.133400
     11 C21        -11.0480    14.2650     1.2460 cx         1 6SJ      -0.133400
     12 C22         -7.4940    11.7880     0.2590 c5         1 6SJ       0.187500
     13 C26         -5.6600    13.0100     1.1190 ca         1 6SJ      -0.014000
     14 C28         -4.9820    15.1870     0.5070 ca         1 6SJ       0.156000
     15 C2          -3.9130    10.9470    -2.5190 ca         1 6SJ       0.127000
     16 C3          -3.4000     9.7370    -2.0730 ca         1 6SJ      -0.108000
     17 C14        -10.7970    10.9830    -0.9790 c5         1 6SJ      -0.075400
     18 N17         -8.9300    11.9020     0.4420 n3         1 6SJ      -0.732600
     19 C18         -9.3560    12.3640     1.7590 c3         1 6SJ       0.211800
     20 C19        -10.7680    12.8900     1.7790 cx         1 6SJ      -0.112700
     21 C23         -6.7460    11.0080     1.3870 c          1 6SJ       0.536000
     22 O24         -7.0490     9.9240     1.8520 o          1 6SJ      -0.525000
     23 N25         -5.6800    11.7720     1.7700 ns         1 6SJ      -0.150000
     24 C27         -4.7520    14.0430     1.2720 ca         1 6SJ      -0.150000
     25 CL2         -3.8610    16.5250     0.6600 cl         1 6SJ      -0.226000
     26 C30         -6.0580    15.3070    -0.3620 ca         1 6SJ      -0.142000
     27 C31         -6.9490    14.2380    -0.4950 ca         1 6SJ      -0.033000
     28 C32         -6.7440    13.0930     0.2440 ca         1 6SJ      -0.123300
     29 C33         -8.4760     9.4030    -3.3800 c3         1 6SJ       0.034800
     30 C34         -9.2250     8.7310    -4.5570 c          1 6SJ       0.712000
     31 O35        -10.3040     8.1340    -4.3320 o          1 6SJ      -0.728000
     32 O36         -8.6380     8.8160    -5.6680 o          1 6SJ      -0.728000
     33 H1          -3.8410     7.9720    -0.9470 ha         1 6SJ       0.112000
     34 H2          -6.1300     8.6580    -0.3820 ha         1 6SJ       0.132000
     35 H3          -5.5770    12.2930    -2.5860 ha         1 6SJ       0.129000
     36 H4          -7.6900    11.7660    -1.8370 hc         1 6SJ       0.081700
     37 H5          -8.1910     9.0640    -0.5580 h1         1 6SJ       0.077700
     38 H7          -9.7500    11.7380    -2.7320 h1         1 6SJ       0.042700
     39 H8         -10.9920    10.5410    -3.1280 h1         1 6SJ       0.042700
     40 H9          -9.8760    10.0380     0.7680 h1         1 6SJ       0.049700
     41 H12        -10.2040    14.8300     0.8700 hc         1 6SJ       0.067950
     42 H13        -11.9760    14.4310     0.7150 hc         1 6SJ       0.067950
     43 H14         -2.3910     9.4410    -2.3230 ha         1 6SJ       0.120000
     44 H15        -11.2000    11.9770    -0.8010 hc         1 6SJ       0.047200
     45 H16        -11.5860    10.2500    -0.8000 hc         1 6SJ       0.047200
     46 H18         -9.2580    11.5610     2.5060 h1         1 6SJ       0.034200
     47 H19         -8.6810    13.1690     2.0580 h1         1 6SJ       0.034200
     48 H20        -11.5400    12.1470     1.6210 hc         1 6SJ       0.083700
     49 H21         -5.0390    11.4990     2.5010 hn         1 6SJ       0.165000
     50 H22         -3.9120    13.9760     1.9470 ha         1 6SJ       0.132000
     51 H23         -6.1980    16.2160    -0.9290 ha         1 6SJ       0.130000
     52 H24         -7.7910    14.3130    -1.1710 ha         1 6SJ       0.139000
     53 H25         -7.6970     8.6970    -3.0750 h1         1 6SJ       0.018200
     54 H26         -7.9540    10.2840    -3.7820 h1         1 6SJ       0.018200
     55 CL1         -2.9020    12.0010    -3.4920 cl         1 6SJ      -0.234000
     56 H10        -10.3160    14.3990     3.3480 hc         1 6SJ       0.067950
     57 H11        -12.0850    13.9870     3.2050 hc         1 6SJ       0.067950
@<TRIPOS>BOND
     1     1     2 ar  
     2     1    16 ar  
     3     1    33 1   
     4     2     3 ar  
     5     2    34 1   
     6     3     4 ar  
     7     3     5 1   
     8     4    15 ar  
     9     4    35 1   
    10     5     6 1   
    11     5    12 1   
    12     5    36 1   
    13     6     7 1   
    14     6     9 1   
    15     6    37 1   
    16     7     8 1   
    17     7    29 1   
    18     8    17 1   
    19     8    38 1   
    20     8    39 1   
    21     9    17 1   
    22     9    18 1   
    23     9    40 1   
    24    10    11 1   
    25    10    20 1   
    26    10    56 1   
    27    10    57 1   
    28    11    20 1   
    29    11    41 1   
    30    11    42 1   
    31    12    18 1   
    32    12    21 1   
    33    12    28 1   
    34    13    23 1   
    35    13    24 ar  
    36    13    28 ar  
    37    14    24 ar  
    38    14    25 1   
    39    14    26 ar  
    40    15    16 ar  
    41    15    55 1   
    42    16    43 1   
    43    17    44 1   
    44    17    45 1   
    45    18    19 1   
    46    19    20 1   
    47    19    46 1   
    48    19    47 1   
    49    20    48 1   
    50    21    22 2   
    51    21    23 1   
    52    23    49 1   
    53    24    50 1   
    54    26    27 ar  
    55    26    51 1   
    56    27    28 ar  
    57    27    52 1   
    58    29    30 1   
    59    29    53 1   
    60    29    54 1   
    61    30    31 1   
    62    30    32 1   
@<TRIPOS>SUBSTRUCTURE
     1 6SJ         1 TEMP              0 ****  ****    0 ROOT
