@<TRIPOS>MOLECULE
6SK
   53    56     1     0     0
SMALL
No Charge or Current Charge


@<TRIPOS>ATOM
      1 C2          -1.7910    11.4700    -2.5060 ca         1 6SK       0.123000
      2 C3          -1.3320    10.2590    -1.9710 ca         1 6SK      -0.100000
      3 C4          -2.2300     9.4100    -1.3070 ca         1 6SK      -0.105000
      4 C5          -3.5820     9.7720    -1.1750 ca         1 6SK      -0.088000
      5 C6          -4.0630    10.9950    -1.7090 ca         1 6SK      -0.058300
      6 C7          -3.1410    11.8310    -2.3780 ca         1 6SK      -0.094000
      7 C8          -5.5240    11.4930    -1.5890 c5         1 6SK       0.003600
      8 C16         -9.2600    13.6830     0.7730 c3         1 6SK      -0.050000
      9 C17        -10.2970    12.5280     0.8570 c3         1 6SK      -0.082100
     10 C18         -9.5260    14.6480     1.9610 c3         1 6SK      -0.082100
     11 C19         -9.4520    14.4670    -0.5540 c3         1 6SK      -0.082100
     12 C21         -4.9570    13.6130    -0.3740 ca         1 6SK      -0.134300
     13 C23         -4.2710    15.7900    -1.1670 ca         1 6SK      -0.138000
     14 C24         -3.2780    15.8350    -0.1610 ca         1 6SK       0.161000
     15 C27         -3.9910    13.6760     0.6100 ca         1 6SK      -0.013000
     16 Cl1         -0.6730    12.5450    -3.3340 cl         1 6SK      -0.217000
     17 C10         -6.5790    10.3550    -1.3820 c5         1 6SK       0.146500
     18 N12         -6.9680     9.6720    -2.6420 n8         1 6SK      -0.988200
     19 C13         -7.7480    11.1220    -0.6440 c5         1 6SK       0.155800
     20 N14         -7.1970    12.4650    -0.2770 n3         1 6SK      -0.747600
     21 C20         -5.7140    12.2890    -0.2640 c5         1 6SK       0.191500
     22 C22         -5.1260    14.6720    -1.2800 ca         1 6SK      -0.036000
     23 Cl2         -2.2240    17.2370    -0.0390 cl         1 6SK      -0.205000
     24 C26         -3.1300    14.7690     0.7480 ca         1 6SK      -0.141000
     25 N28         -4.0690    12.5120     1.3680 ns         1 6SK      -0.144000
     26 C29         -5.0380    11.5950     1.0090 c          1 6SK       0.537000
     27 O30         -5.2930    10.5460     1.5940 o          1 6SK      -0.528000
     28 H1          -0.2850     9.9810    -2.0710 ha         1 6SK       0.129000
     29 H2          -1.8770     8.4700    -0.8890 ha         1 6SK       0.119000
     30 H3          -4.2350     9.0870    -0.6440 ha         1 6SK       0.127000
     31 H4          -3.4720    12.7770    -2.7980 ha         1 6SK       0.128000
     32 H5          -5.8040    12.1090    -2.4520 hc         1 6SK       0.072700
     33 H6          -7.7140    12.5230     1.7860 h1         1 6SK       0.039700
     34 H7          -7.1620    14.0450     1.1090 h1         1 6SK       0.039700
     35 H8         -10.1050    11.8900     1.7280 hc         1 6SK       0.034367
     36 H9         -11.3150    12.9270     0.9510 hc         1 6SK       0.034367
     37 H10        -10.2850    11.9000    -0.0390 hc         1 6SK       0.034367
     38 H11         -9.3990    14.1310     2.9200 hc         1 6SK       0.034367
     39 H12         -8.8340    15.4980     1.9410 hc         1 6SK       0.034367
     40 H13        -10.5470    15.0470     1.9250 hc         1 6SK       0.034367
     41 H14         -8.7240    15.2840    -0.6330 hc         1 6SK       0.034367
     42 H15         -9.3210    13.8120    -1.4240 hc         1 6SK       0.034367
     43 H16        -10.4580    14.9010    -0.6110 hc         1 6SK       0.034367
     44 H17         -4.3770    16.6230    -1.8570 ha         1 6SK       0.135000
     45 H18         -6.2210     9.5820    -0.6920 h1         1 6SK       0.082700
     46 H19         -7.7630     9.0480    -2.4600 hn         1 6SK       0.399000
     47 H20         -7.3520    10.3660    -3.2940 hn         1 6SK       0.399000
     48 H22         -8.6210    11.2330    -1.2990 h1         1 6SK       0.044700
     49 H23         -8.0670    10.5580     0.2440 h1         1 6SK       0.044700
     50 H25         -5.8960    14.6310    -2.0470 ha         1 6SK       0.131000
     51 H26         -2.3740    14.7990     1.5280 ha         1 6SK       0.139000
     52 H27         -3.4700    12.3610     2.1690 hn         1 6SK       0.175000
     53 C15         -7.7860    13.1660     0.8970 c3         1 6SK       0.199800
@<TRIPOS>BOND
     1     1     2 ar  
     2     1     6 ar  
     3     1    16 1   
     4     2     3 ar  
     5     2    28 1   
     6     3     4 ar  
     7     3    29 1   
     8     4     5 ar  
     9     4    30 1   
    10     5     6 ar  
    11     5     7 1   
    12     6    31 1   
    13     7    17 1   
    14     7    21 1   
    15     7    32 1   
    16     8     9 1   
    17     8    10 1   
    18     8    11 1   
    19     8    53 1   
    20     9    35 1   
    21     9    36 1   
    22     9    37 1   
    23    10    38 1   
    24    10    39 1   
    25    10    40 1   
    26    11    41 1   
    27    11    42 1   
    28    11    43 1   
    29    12    15 ar  
    30    12    21 1   
    31    12    22 ar  
    32    13    14 ar  
    33    13    22 ar  
    34    13    44 1   
    35    14    23 1   
    36    14    24 ar  
    37    15    24 ar  
    38    15    25 1   
    39    17    18 1   
    40    17    19 1   
    41    17    45 1   
    42    18    46 1   
    43    18    47 1   
    44    19    20 1   
    45    19    48 1   
    46    19    49 1   
    47    20    21 1   
    48    20    53 1   
    49    21    26 1   
    50    22    50 1   
    51    24    51 1   
    52    25    26 1   
    53    25    52 1   
    54    26    27 2   
    55    33    53 1   
    56    34    53 1   
@<TRIPOS>SUBSTRUCTURE
     1 6SK         1 TEMP              0 ****  ****    0 ROOT
