@<TRIPOS>MOLECULE
6SK
   53    56     1     0     0
SMALL
abcg2


@<TRIPOS>ATOM
      1 C2          -1.9330    11.4490    -2.5300 ca         1 6SK       0.123000
      2 C3          -1.3590    10.3570    -1.8950 ca         1 6SK      -0.100000
      3 C4          -2.1810     9.5380    -1.1280 ca         1 6SK      -0.105000
      4 C5          -3.5370     9.8130    -0.9960 ca         1 6SK      -0.088000
      5 C6          -4.1040    10.9170    -1.6330 ca         1 6SK      -0.058300
      6 C7          -3.2840    11.7330    -2.4150 ca         1 6SK      -0.094000
      7 C8          -5.5480    11.3090    -1.4630 c5         1 6SK       0.003600
      8 C16         -9.0770    13.7370     0.8340 c3         1 6SK      -0.050000
      9 C17        -10.2220    12.9740     0.1580 c3         1 6SK      -0.082100
     10 C18         -9.5280    14.1870     2.2310 c3         1 6SK      -0.082100
     11 C19         -8.7140    14.9670    -0.0030 c3         1 6SK      -0.082100
     12 C21         -5.1760    13.6300    -0.4860 ca         1 6SK      -0.134300
     13 C23         -4.6020    15.7430    -1.4600 ca         1 6SK      -0.138000
     14 C24         -3.5890    15.8770    -0.5200 ca         1 6SK       0.161000
     15 C27         -4.1510    13.7980     0.4470 ca         1 6SK      -0.013000
     16 CL1         -0.9240    12.5020    -3.5060 cl         1 6SK      -0.217000
     17 C10         -6.5810    10.2030    -1.2300 c5         1 6SK       0.146500
     18 N12         -6.8210     9.4290    -2.4420 n8         1 6SK      -0.988200
     19 C13         -7.7830    10.9720    -0.6410 c5         1 6SK       0.155800
     20 N14         -7.2680    12.2720    -0.1890 n3         1 6SK      -0.747600
     21 C20         -5.8170    12.2810    -0.2810 c5         1 6SK       0.191500
     22 C22         -5.4010    14.5980    -1.4410 ca         1 6SK      -0.036000
     23 CL2         -2.5850    17.3120    -0.5540 cl         1 6SK      -0.205000
     24 C26         -3.3340    14.9140     0.4560 ca         1 6SK      -0.141000
     25 N28         -4.1160    12.6950     1.3060 ns         1 6SK      -0.144000
     26 C29         -5.0880    11.7820     1.0090 c          1 6SK       0.537000
     27 O30         -5.3390    10.7760     1.6480 o          1 6SK      -0.528000
     28 H1          -0.3040    10.1500    -2.0010 ha         1 6SK       0.129000
     29 H2          -1.7540     8.6780    -0.6280 ha         1 6SK       0.119000
     30 H3          -4.1490     9.1650    -0.3860 ha         1 6SK       0.127000
     31 H4          -3.6990    12.5920    -2.9250 ha         1 6SK       0.128000
     32 H5          -5.8570    11.8600    -2.3560 hc         1 6SK       0.072700
     33 H6          -8.0930    12.0380     1.7340 h1         1 6SK       0.039700
     34 H7          -7.0720    13.4540     1.5060 h1         1 6SK       0.039700
     35 H8         -10.4580    12.0540     0.6990 hc         1 6SK       0.034367
     36 H9         -11.1220    13.5920     0.1330 hc         1 6SK       0.034367
     37 H10         -9.9690    12.7100    -0.8700 hc         1 6SK       0.034367
     38 H11         -9.8080    13.3290     2.8480 hc         1 6SK       0.034367
     39 H12         -8.7290    14.7280     2.7450 hc         1 6SK       0.034367
     40 H13        -10.3930    14.8490     2.1580 hc         1 6SK       0.034367
     41 H14         -7.9140    15.5390     0.4720 hc         1 6SK       0.034367
     42 H15         -8.3740    14.6760    -0.9980 hc         1 6SK       0.034367
     43 H16         -9.5820    15.6210    -0.1150 hc         1 6SK       0.034367
     44 H17         -4.7650    16.5180    -2.1960 ha         1 6SK       0.135000
     45 H18         -6.2120     9.5130    -0.4730 h1         1 6SK       0.082700
     46 H19         -7.4540     8.6610    -2.2450 hn         1 6SK       0.399000
     47 H20         -7.2800    10.0100    -3.1380 hn         1 6SK       0.399000
     48 H22         -8.5490    11.1040    -1.4090 h1         1 6SK       0.044700
     49 H23         -8.2390    10.4190     0.1870 h1         1 6SK       0.044700
     50 H25         -6.1890    14.4780    -2.1730 ha         1 6SK       0.131000
     51 H26         -2.5380    15.0400     1.1760 ha         1 6SK       0.139000
     52 H27         -3.5110    12.6160     2.1110 hn         1 6SK       0.175000
     53 C15         -7.8380    12.8400     1.0260 c3         1 6SK       0.199800
@<TRIPOS>BOND
     1     1     2 ar  
     2     1     6 ar  
     3     1    16 1   
     4     2     3 ar  
     5     2    28 1   
     6     3     4 ar  
     7     3    29 1   
     8     4     5 ar  
     9     4    30 1   
    10     5     6 ar  
    11     5     7 1   
    12     6    31 1   
    13     7    17 1   
    14     7    21 1   
    15     7    32 1   
    16     8     9 1   
    17     8    10 1   
    18     8    11 1   
    19     8    53 1   
    20     9    35 1   
    21     9    36 1   
    22     9    37 1   
    23    10    38 1   
    24    10    39 1   
    25    10    40 1   
    26    11    41 1   
    27    11    42 1   
    28    11    43 1   
    29    12    15 ar  
    30    12    21 1   
    31    12    22 ar  
    32    13    14 ar  
    33    13    22 ar  
    34    13    44 1   
    35    14    23 1   
    36    14    24 ar  
    37    15    24 ar  
    38    15    25 1   
    39    17    18 1   
    40    17    19 1   
    41    17    45 1   
    42    18    46 1   
    43    18    47 1   
    44    19    20 1   
    45    19    48 1   
    46    19    49 1   
    47    20    21 1   
    48    20    53 1   
    49    21    26 1   
    50    22    50 1   
    51    24    51 1   
    52    25    26 1   
    53    25    52 1   
    54    26    27 2   
    55    33    53 1   
    56    34    53 1   
@<TRIPOS>SUBSTRUCTURE
     1 6SK         1 TEMP              0 ****  ****    0 ROOT
