@<TRIPOS>MOLECULE
6SL
   24    26     1     0     0
SMALL
No Charge or Current Charge


@<TRIPOS>ATOM
      1 C1           4.2410     0.7460    -0.0010 ca         1 6SL      -0.134000
      2 C2           4.2560    -0.6700    -0.0100 ca         1 6SL      -0.090000
      3 C3           3.0450    -1.3930    -0.0140 ca         1 6SL      -0.116000
      4 C7          -0.2400     0.0650    -0.0060 cc         1 6SL       0.471400
      5 C8          -1.7040     0.0490    -0.0070 ca         1 6SL      -0.163900
      6 C9          -2.4480     1.2490    -0.0000 ca         1 6SL      -0.031000
      7 C10         -3.8490     1.1700    -0.0010 ca         1 6SL      -0.166000
      8 C11         -4.4650    -0.0910    -0.0080 ca         1 6SL       0.345900
      9 C12         -2.4120    -1.1680    -0.0140 ca         1 6SL       0.344900
     10 N3          -3.7630    -1.2470    -0.0150 nb         1 6SL      -0.666000
     11 N2           0.5610    -1.0770    -0.0130 na         1 6SL      -0.307600
     12 C4           1.8550    -0.6560    -0.0100 ca         1 6SL      -0.077200
     13 N1           0.5160     1.1830     0.0010 nd         1 6SL      -0.574100
     14 C5           1.8240     0.7080    -0.0020 ca         1 6SL       0.071400
     15 C6           3.0150     1.4490     0.0030 ca         1 6SL      -0.048000
     16 H1           5.1790     1.2970     0.0030 ha         1 6SL       0.115000
     17 H2           5.2050    -1.2020    -0.0130 ha         1 6SL       0.113000
     18 H3           3.0380    -2.4810    -0.0210 ha         1 6SL       0.118000
     19 H4          -1.9550     2.2200     0.0050 ha         1 6SL       0.147000
     20 H5          -4.4570     2.0710     0.0040 ha         1 6SL       0.129000
     21 H6          -5.5510    -0.1800    -0.0090 h4         1 6SL       0.022100
     22 H7          -1.8900    -2.1240    -0.0190 h4         1 6SL       0.009100
     23 H8           0.2350    -2.0330    -0.0190 hn         1 6SL       0.358000
     24 H10          2.9920     2.5360     0.0100 ha         1 6SL       0.129000
@<TRIPOS>BOND
     1     1     2 ar  
     2     1    15 ar  
     3     1    16 1   
     4     2     3 ar  
     5     2    17 1   
     6     3    12 ar  
     7     3    18 1   
     8     4     5 1   
     9     4    11 1   
    10     4    13 2   
    11     5     6 ar  
    12     5     9 ar  
    13     6     7 ar  
    14     6    19 1   
    15     7     8 ar  
    16     7    20 1   
    17     8    10 ar  
    18     8    21 1   
    19     9    10 ar  
    20     9    22 1   
    21    11    12 1   
    22    11    23 1   
    23    12    14 ar  
    24    13    14 1   
    25    14    15 ar  
    26    15    24 1   
@<TRIPOS>SUBSTRUCTURE
     1 6SL         1 TEMP              0 ****  ****    0 ROOT
