@<TRIPOS>MOLECULE
6SL
   24    26     1     0     0
SMALL
abcg2


@<TRIPOS>ATOM
      1 C1           4.1700     0.7660     0.0170 ca         1 6SL      -0.134000
      2 C2           4.2060    -0.6370    -0.0220 ca         1 6SL      -0.090000
      3 C3           3.0470    -1.3920    -0.0440 ca         1 6SL      -0.116000
      4 C7          -0.2300     0.0330    -0.0060 cc         1 6SL       0.471400
      5 C8          -1.6890     0.0130    -0.0030 ca         1 6SL      -0.163900
      6 C9          -2.4000     1.2130    -0.0330 ca         1 6SL      -0.031000
      7 C10         -3.7800     1.1750    -0.0270 ca         1 6SL      -0.166000
      8 C11         -4.4110    -0.0610     0.0070 ca         1 6SL       0.345900
      9 C12         -2.4250    -1.1700     0.0320 ca         1 6SL       0.344900
     10 N3          -3.7490    -1.2110     0.0360 nb         1 6SL      -0.666000
     11 N2           0.5390    -1.0900    -0.0380 na         1 6SL      -0.307600
     12 C4           1.8470    -0.6900    -0.0270 ca         1 6SL      -0.077200
     13 N1           0.4850     1.1280     0.0260 nd         1 6SL      -0.574100
     14 C5           1.7910     0.7130     0.0120 ca         1 6SL       0.071400
     15 C6           2.9720     1.4560     0.0340 ca         1 6SL      -0.048000
     16 H1           5.1020     1.3160     0.0340 ha         1 6SL       0.115000
     17 H2           5.1640    -1.1410    -0.0340 ha         1 6SL       0.113000
     18 H3           3.0770    -2.4730    -0.0730 ha         1 6SL       0.118000
     19 H4          -1.8690     2.1550    -0.0610 ha         1 6SL       0.147000
     20 H5          -4.3640     2.0840    -0.0510 ha         1 6SL       0.129000
     21 H6          -5.4940    -0.1240     0.0110 h4         1 6SL       0.022100
     22 H7          -1.9310    -2.1360     0.0610 h4         1 6SL       0.009100
     23 H8           0.2220    -2.0450    -0.0730 hn         1 6SL       0.358000
     24 H10          2.9470     2.5380     0.0640 ha         1 6SL       0.129000
@<TRIPOS>BOND
     1     1     2 ar  
     2     1    15 ar  
     3     1    16 1   
     4     2     3 ar  
     5     2    17 1   
     6     3    12 ar  
     7     3    18 1   
     8     4     5 1   
     9     4    11 1   
    10     4    13 2   
    11     5     6 ar  
    12     5     9 ar  
    13     6     7 ar  
    14     6    19 1   
    15     7     8 ar  
    16     7    20 1   
    17     8    10 ar  
    18     8    21 1   
    19     9    10 ar  
    20     9    22 1   
    21    11    12 1   
    22    11    23 1   
    23    12    14 ar  
    24    13    14 1   
    25    14    15 ar  
    26    15    24 1   
@<TRIPOS>SUBSTRUCTURE
     1 6SL         1 TEMP              0 ****  ****    0 ROOT
