@<TRIPOS>MOLECULE
6SM
   12    12     1     0     0
SMALL
bcc


@<TRIPOS>ATOM
      1 O2          -1.8210    -2.0270     0.5350 o          1 6SM      -0.785800
      2 C5          -1.5580    -0.9150     0.0540 c          1 6SM       0.829100
      3 O1          -2.3260    -0.0900    -0.4620 o          1 6SM      -0.785800
      4 C2          -0.0530    -0.5840    -0.0100 ca         1 6SM       0.403800
      5 N1           0.7830    -1.6270    -0.0470 nb         1 6SM      -0.666000
      6 C3           0.4880     0.6970     0.0070 ca         1 6SM      -0.195200
      7 CL          -0.4290     2.1530     0.0780 cl         1 6SM      -0.094400
      8 C4           1.8750     0.8280     0.0200 ca         1 6SM       0.397200
      9 N2           2.6780    -0.2170    -0.0180 nb         1 6SM      -0.741000
     10 C1           2.0790    -1.4040    -0.0650 ca         1 6SM       0.607900
     11 H2           2.3220     1.8140     0.0980 h4         1 6SM       0.006100
     12 H3           2.7360    -2.2660    -0.1200 h5         1 6SM       0.025100
@<TRIPOS>BOND
     1     1     2 1   
     2     2     3 1   
     3     2     4 1   
     4     4     5 ar  
     5     4     6 ar  
     6     5    10 ar  
     7     6     7 1   
     8     6     8 ar  
     9     8     9 ar  
    10     8    11 1   
    11     9    10 ar  
    12    10    12 1   
@<TRIPOS>SUBSTRUCTURE
     1 6SM         1 TEMP              0 ****  ****    0 ROOT
