@<TRIPOS>MOLECULE
6SM
   12    12     1     0     0
SMALL
No Charge or Current Charge


@<TRIPOS>ATOM
      1 O2          -1.9230    -1.9140     0.6100 o          1 6SM      -0.680500
      2 C5          -1.5440    -0.9030     0.0300 c          1 6SM       0.618500
      3 O1          -2.3110    -0.1720    -0.5830 o          1 6SM      -0.680500
      4 C2          -0.0490    -0.6070    -0.0010 ca         1 6SM       0.075500
      5 N1           0.7910    -1.6740    -0.0510 nb         1 6SM      -0.140000
      6 C3           0.4830     0.7100     0.0460 ca         1 6SM       0.027000
      7 Cl          -0.5110     2.1640     0.1920 cl         1 6SM      -0.186000
      8 C4           1.8840     0.8520     0.0170 ca         1 6SM       0.068900
      9 N2           2.7070    -0.2130    -0.0470 nb         1 6SM      -0.215000
     10 C1           2.1160    -1.4240    -0.0760 ca         1 6SM       0.081900
     11 H2           2.3550     1.8320     0.0550 h4         1 6SM       0.006100
     12 H3           2.7750    -2.2890    -0.1220 h5         1 6SM       0.025100
@<TRIPOS>BOND
     1     1     2 1   
     2     2     3 1   
     3     2     4 1   
     4     4     5 ar  
     5     4     6 ar  
     6     5    10 ar  
     7     6     7 1   
     8     6     8 ar  
     9     8     9 ar  
    10     8    11 1   
    11     9    10 ar  
    12    10    12 1   
@<TRIPOS>SUBSTRUCTURE
     1 6SM         1 TEMP              0 ****  ****    0 ROOT
