@<TRIPOS>MOLECULE
6SN
   21    22     1     0     0
SMALL
abcg2


@<TRIPOS>ATOM
      1 C1          -1.3170     1.7610     0.1650 ca         1 6SN      -0.094000
      2 C2          -2.1800     0.6890    -0.0150 ca         1 6SN       0.121000
      3 C3          -1.6600    -0.5920    -0.1580 ca         1 6SN       0.120000
      4 C7           3.0560     0.9630    -0.1220 cc         1 6SN      -0.250000
      5 C8           4.2290     0.1990     0.0530 cc         1 6SN       0.464900
      6 CL1         -3.8780     0.9600    -0.0590 cl         1 6SN      -0.164000
      7 CL          -2.7040    -1.9400    -0.3940 cl         1 6SN      -0.167000
      8 C4          -0.2900    -0.7980    -0.1240 ca         1 6SN      -0.097000
      9 C5           0.5810     0.2730     0.0660 ca         1 6SN      -0.009000
     10 C            0.0480     1.5540     0.2080 ca         1 6SN      -0.080000
     11 C6           2.0250     0.0740     0.1100 cd         1 6SN      -0.078000
     12 N1           2.6050    -1.1050     0.3920 na         1 6SN      -0.000200
     13 N            3.9420    -1.0520     0.3690 nd         1 6SN      -0.564800
     14 H1          -1.7180     2.7590     0.2790 ha         1 6SN       0.136000
     15 H2           2.9810     2.0010    -0.4020 ha         1 6SN       0.146000
     16 H3           0.0840    -1.8030    -0.2650 ha         1 6SN       0.128000
     17 H4           0.7030     2.4010     0.3660 ha         1 6SN       0.131000
     18 H5           2.1550    -1.9590     0.6780 hn         1 6SN       0.374000
     19 H6           5.6620     1.4170    -0.6560 hn         1 6SN       0.444500
     20 H7           6.1990    -0.0860    -0.2160 hn         1 6SN       0.444500
     21 N2           5.5330     0.6460    -0.0200 nv         1 6SN      -1.004900
@<TRIPOS>BOND
     1     1     2 ar  
     2     1    10 ar  
     3     1    14 1   
     4     2     3 ar  
     5     2     6 1   
     6     3     7 1   
     7     3     8 ar  
     8     4     5 1   
     9     4    11 2   
    10     4    15 1   
    11     5    13 2   
    12     5    21 1   
    13     8     9 ar  
    14     8    16 1   
    15     9    10 ar  
    16     9    11 1   
    17    10    17 1   
    18    11    12 1   
    19    12    13 1   
    20    12    18 1   
    21    19    21 1   
    22    20    21 1   
@<TRIPOS>SUBSTRUCTURE
     1 6SN         1 TEMP              0 ****  ****    0 ROOT
