@<TRIPOS>MOLECULE
6SN
   21    22     1     0     0
SMALL
No Charge or Current Charge


@<TRIPOS>ATOM
      1 C1          -1.2990     1.8120    -0.0190 ca         1 6SN      -0.094000
      2 C2          -2.2050     0.7400    -0.0010 ca         1 6SN       0.121000
      3 C3          -1.7200    -0.5830     0.0330 ca         1 6SN       0.120000
      4 C7           3.0650     0.8920     0.0350 cc         1 6SN      -0.250000
      5 C8           4.2370     0.1460     0.0620 cc         1 6SN       0.464900
      6 Cl1         -3.9360     1.0780    -0.0220 cl         1 6SN      -0.164000
      7 Cl          -2.8270    -1.9560     0.0560 cl         1 6SN      -0.167000
      8 C4          -0.3350    -0.8240     0.0490 ca         1 6SN      -0.097000
      9 C5           0.5840     0.2480     0.0310 ca         1 6SN      -0.009000
     10 C            0.0860     1.5680    -0.0030 ca         1 6SN      -0.080000
     11 C6           2.0380    -0.0070     0.0480 cd         1 6SN      -0.078000
     12 N1           2.6860    -1.2580     0.0820 na         1 6SN      -0.000200
     13 N            4.0820    -1.1440     0.0900 nd         1 6SN      -0.564800
     14 H1          -1.6700     2.8330    -0.0460 ha         1 6SN       0.136000
     15 H2           3.0120     1.9740     0.0100 ha         1 6SN       0.146000
     16 H3           0.0140    -1.8520     0.0750 ha         1 6SN       0.128000
     17 H4           0.7680     2.4140    -0.0180 ha         1 6SN       0.131000
     18 H5           2.2290    -2.1690     0.1000 hn         1 6SN       0.374000
     19 H6           5.5440     1.6690    -0.2210 hn         1 6SN       0.444500
     20 H7           6.2450     0.0860    -0.1420 hn         1 6SN       0.444500
     21 N2           5.4580     0.6960     0.0550 nv         1 6SN      -1.004900
@<TRIPOS>BOND
     1     1     2 ar  
     2     1    10 ar  
     3     1    14 1   
     4     2     3 ar  
     5     2     6 1   
     6     3     7 1   
     7     3     8 ar  
     8     4     5 1   
     9     4    11 2   
    10     4    15 1   
    11     5    13 2   
    12     5    21 1   
    13     8     9 ar  
    14     8    16 1   
    15     9    10 ar  
    16     9    11 1   
    17    10    17 1   
    18    11    12 1   
    19    12    13 1   
    20    12    18 1   
    21    19    21 1   
    22    20    21 1   
@<TRIPOS>SUBSTRUCTURE
     1 6SN         1 TEMP              0 ****  ****    0 ROOT
