@<TRIPOS>MOLECULE
6SO
   24    25     1     0     0
SMALL
No Charge or Current Charge


@<TRIPOS>ATOM
      1 C1         -22.7960   -36.5190     1.6270 ca         1 6SO      -0.084000
      2 C2         -22.3890   -35.1740     1.7620 ca         1 6SO      -0.121000
      3 C3         -22.0650   -34.4620     0.5990 ca         1 6SO      -0.046200
      4 C7         -21.7460   -34.0570    -1.6070 cc         1 6SO      -0.133400
      5 C8         -21.4450   -32.9070    -0.8820 cd         1 6SO      -0.152100
      6 C9         -21.6860   -34.2370    -3.1020 c3         1 6SO      -0.005200
      7 C10        -23.0850   -34.3290    -3.7510 c3         1 6SO       0.149800
      8 C6         -22.8680   -37.1160     0.3460 ca         1 6SO       0.094000
      9 C5         -22.5360   -36.3750    -0.8070 ca         1 6SO      -0.050000
     10 C4         -22.1390   -35.0400    -0.6370 ca         1 6SO      -0.090800
     11 N2         -23.0120   -34.5030    -5.2180 n8         1 6SO      -1.005200
     12 N1         -21.6430   -33.1490     0.5000 na         1 6SO      -0.230700
     13 H1         -23.0540   -37.0990     2.5090 ha         1 6SO       0.128000
     14 H2         -22.3280   -34.7060     2.7420 ha         1 6SO       0.118000
     15 H3         -21.1100   -31.9390    -1.2480 h4         1 6SO       0.213000
     16 H4         -21.1200   -35.1460    -3.3360 hc         1 6SO       0.051700
     17 H5         -21.1350   -33.4010    -3.5510 hc         1 6SO       0.051700
     18 H6         -23.6500   -33.4120    -3.5320 h1         1 6SO       0.031700
     19 H7         -23.6340   -35.1800    -3.3250 h1         1 6SO       0.031700
     20 H8         -22.5850   -36.8290    -1.7930 ha         1 6SO       0.135000
     21 H9         -23.9660   -34.5010    -5.6020 hn         1 6SO       0.392000
     22 H10        -22.5860   -33.6650    -5.6330 hn         1 6SO       0.392000
     23 H12        -21.5030   -32.4930     1.2630 hn         1 6SO       0.352000
     24 Cl         -23.3730   -38.7940     0.1920 cl         1 6SO      -0.225000
@<TRIPOS>BOND
     1     1     2 ar  
     2     1     8 ar  
     3     1    13 1   
     4     2     3 ar  
     5     2    14 1   
     6     3    10 ar  
     7     3    12 1   
     8     4     5 2   
     9     4     6 1   
    10     4    10 1   
    11     5    12 1   
    12     5    15 1   
    13     6     7 1   
    14     6    16 1   
    15     6    17 1   
    16     7    11 1   
    17     7    18 1   
    18     7    19 1   
    19     8     9 ar  
    20     8    24 1   
    21     9    10 ar  
    22     9    20 1   
    23    11    21 1   
    24    11    22 1   
    25    12    23 1   
@<TRIPOS>SUBSTRUCTURE
     1 6SO         1 TEMP              0 ****  ****    0 ROOT
