@<TRIPOS>MOLECULE
6SO
   24    25     1     0     0
SMALL
abcg2


@<TRIPOS>ATOM
      1 C1         -22.7780   -36.5100     1.6390 ca         1 6SO      -0.084000
      2 C2         -22.3870   -35.1880     1.7760 ca         1 6SO      -0.121000
      3 C3         -22.0760   -34.4750     0.6200 ca         1 6SO      -0.046200
      4 C7         -21.7560   -34.0600    -1.6240 cc         1 6SO      -0.133400
      5 C8         -21.4700   -32.9350    -0.8920 cd         1 6SO      -0.152100
      6 C9         -21.7030   -34.2140    -3.1100 c3         1 6SO      -0.005200
      7 C10        -23.0910   -34.2670    -3.7550 c3         1 6SO       0.149800
      8 C6         -22.8490   -37.0930     0.3640 ca         1 6SO       0.094000
      9 C5         -22.5440   -36.4030    -0.7930 ca         1 6SO      -0.050000
     10 C4         -22.1490   -35.0640    -0.6720 ca         1 6SO      -0.090800
     11 N2         -22.9810   -34.4880    -5.2020 n8         1 6SO      -1.005200
     12 N1         -21.6610   -33.1780     0.4510 na         1 6SO      -0.230700
     13 H1         -23.0310   -37.0980     2.5100 ha         1 6SO       0.128000
     14 H2         -22.3270   -34.7290     2.7540 ha         1 6SO       0.118000
     15 H3         -21.1370   -31.9670    -1.2300 h4         1 6SO       0.213000
     16 H4         -21.1670   -35.1310    -3.3760 hc         1 6SO       0.051700
     17 H5         -21.1430   -33.3820    -3.5450 hc         1 6SO       0.051700
     18 H6         -23.6310   -33.3450    -3.5000 h1         1 6SO       0.031700
     19 H7         -23.6590   -35.0970    -3.3280 h1         1 6SO       0.031700
     20 H8         -22.6100   -36.8860    -1.7590 ha         1 6SO       0.135000
     21 H9         -23.9070   -34.5560    -5.6120 hn         1 6SO       0.392000
     22 H10        -22.5420   -33.6810    -5.6360 hn         1 6SO       0.392000
     23 H12        -21.5050   -32.5120     1.1890 hn         1 6SO       0.352000
     24 CL         -23.3490   -38.7770     0.2460 cl         1 6SO      -0.225000
@<TRIPOS>BOND
     1     1     2 ar  
     2     1     8 ar  
     3     1    13 1   
     4     2     3 ar  
     5     2    14 1   
     6     3    10 ar  
     7     3    12 1   
     8     4     5 2   
     9     4     6 1   
    10     4    10 1   
    11     5    12 1   
    12     5    15 1   
    13     6     7 1   
    14     6    16 1   
    15     6    17 1   
    16     7    11 1   
    17     7    18 1   
    18     7    19 1   
    19     8     9 ar  
    20     8    24 1   
    21     9    10 ar  
    22     9    20 1   
    23    11    21 1   
    24    11    22 1   
    25    12    23 1   
@<TRIPOS>SUBSTRUCTURE
     1 6SO         1 TEMP              0 ****  ****    0 ROOT
