@<TRIPOS>MOLECULE
6SP
   15    15     1     0     0
SMALL
No Charge or Current Charge


@<TRIPOS>ATOM
      1 O1           1.6680     0.1240     0.7930 oh         1 6SP      -0.662000
      2 C2           0.8210     0.0810    -0.3640 c5         1 6SP       0.126300
      3 C3          -0.2800     1.1790    -0.3320 c5         1 6SP       0.101800
      4 N4          -1.2020     0.6650     0.7040 n7         1 6SP      -0.827400
      5 C5          -1.4060    -0.7460     0.2980 c5         1 6SP       0.140800
      6 C6          -0.0650    -1.1980    -0.3670 c5         1 6SP      -0.103400
      7 HO1          2.2070     0.9430     0.7240 ho         1 6SP       0.441000
      8 H2           1.4300     0.1490    -1.2770 h1         1 6SP       0.046700
      9 H3           0.1230     2.1680    -0.0710 h1         1 6SP       0.057200
     10 H3A         -0.7840     1.2660    -1.3060 h1         1 6SP       0.057200
     11 HN4         -0.6680     0.6520     1.5830 hn         1 6SP       0.405000
     12 H5          -1.6730    -1.3760     1.1590 h1         1 6SP       0.050200
     13 H5A         -2.2290    -0.8180    -0.4290 h1         1 6SP       0.050200
     14 H6          -0.2460    -1.5490    -1.3890 hc         1 6SP       0.058700
     15 H6A          0.4030    -2.0290     0.1730 hc         1 6SP       0.058700
@<TRIPOS>BOND
     1     1     2 1   
     2     1     7 1   
     3     2     3 1   
     4     2     6 1   
     5     2     8 1   
     6     3     4 1   
     7     3     9 1   
     8     3    10 1   
     9     4     5 1   
    10     4    11 1   
    11     5     6 1   
    12     5    12 1   
    13     5    13 1   
    14     6    14 1   
    15     6    15 1   
@<TRIPOS>SUBSTRUCTURE
     1 6SP         1 TEMP              0 ****  ****    0 ROOT
