@<TRIPOS>MOLECULE
6SP
   15    15     1     0     0
SMALL
abcg2


@<TRIPOS>ATOM
      1 O1           1.6120     0.0240     0.7710 oh         1 6SP      -0.662000
      2 C2           0.8170     0.0590    -0.4010 c5         1 6SP       0.126300
      3 C3          -0.2330     1.1690    -0.3360 c5         1 6SP       0.101800
      4 N4          -1.2520     0.6880     0.5880 n7         1 6SP      -0.827400
      5 C5          -1.3440    -0.7580     0.3500 c5         1 6SP       0.140800
      6 C6          -0.0660    -1.1820    -0.4170 c5         1 6SP      -0.103400
      7 HO1          2.0900     0.8560     0.8340 ho         1 6SP       0.441000
      8 H2           1.4440     0.1340    -1.2990 h1         1 6SP       0.046700
      9 H3           0.1670     2.1330    -0.0150 h1         1 6SP       0.057200
     10 H3A         -0.6680     1.3110    -1.3310 h1         1 6SP       0.057200
     11 HN4         -0.9100     0.8350     1.5290 hn         1 6SP       0.405000
     12 H5          -1.4570    -1.2860     1.2960 h1         1 6SP       0.050200
     13 H5A         -2.2300    -0.9850    -0.2470 h1         1 6SP       0.050200
     14 H6          -0.3050    -1.4420    -1.4490 hc         1 6SP       0.058700
     15 H6A          0.4340    -2.0440     0.0260 hc         1 6SP       0.058700
@<TRIPOS>BOND
     1     1     2 1   
     2     1     7 1   
     3     2     3 1   
     4     2     6 1   
     5     2     8 1   
     6     3     4 1   
     7     3     9 1   
     8     3    10 1   
     9     4     5 1   
    10     4    11 1   
    11     5     6 1   
    12     5    12 1   
    13     5    13 1   
    14     6    14 1   
    15     6    15 1   
@<TRIPOS>SUBSTRUCTURE
     1 6SP         1 TEMP              0 ****  ****    0 ROOT
