@<TRIPOS>MOLECULE
6SQ
   44    46     1     0     0
SMALL
No Charge or Current Charge


@<TRIPOS>ATOM
      1 C10          1.0460     1.1830    -0.8410 c6         1 6SQ       0.210800
      2 N11          1.7810     0.1290    -0.0830 nh         1 6SQ      -0.807400
      3 C13         -0.3380    -0.8500     0.8330 c6         1 6SQ      -0.076900
      4 O14         -2.5950     1.2140     1.7790 o          1 6SQ      -0.511100
      5 C17          3.8760    -0.4360     1.0240 ca         1 6SQ      -0.195000
      6 C19          6.0330    -0.0380    -0.0560 ca         1 6SQ      -0.225600
      7 C20          5.3440     0.4810    -1.1750 ca         1 6SQ      -0.024000
      8 C21          3.9400     0.5380    -1.1870 ca         1 6SQ      -0.195000
      9 C23          7.5490    -0.0890    -0.0650 c          1 6SQ       0.590700
     10 C24          8.2970    -0.6510     1.1450 c3         1 6SQ      -0.195100
     11 C1          -2.5230     0.5390     0.7580 c          1 6SQ       0.585700
     12 C2          -3.7710    -0.0490     0.1330 ca         1 6SQ      -0.166600
     13 C3          -5.0060     0.6160     0.3070 ca         1 6SQ      -0.052000
     14 C4          -6.1850     0.0960    -0.2520 ca         1 6SQ       0.105000
     15 C5          -6.1510    -1.0990    -0.9860 ca         1 6SQ      -0.078000
     16 C6          -4.9340    -1.7790    -1.1560 ca         1 6SQ      -0.116000
     17 C7          -3.7500    -1.2620    -0.5990 ca         1 6SQ      -0.076000
     18 C8          -1.1470     0.2590     0.1080 c6         1 6SQ      -0.158700
     19 C9          -0.2970     1.5320    -0.1510 c6         1 6SQ      -0.076900
     20 C12          1.0030    -1.1280     0.1100 c6         1 6SQ       0.210800
     21 C16          3.1930     0.0800    -0.0880 ca         1 6SQ       0.348000
     22 C18          5.2790    -0.4970     1.0480 ca         1 6SQ      -0.024000
     23 Cl          -7.7100     0.9450    -0.0310 cl         1 6SQ      -0.193000
     24 O25          8.1840     0.3150    -1.0320 o          1 6SQ      -0.537100
     25 H1           1.6500     2.1000    -0.9090 h1         1 6SQ       0.042700
     26 H2           0.8500     0.8390    -1.8680 h1         1 6SQ       0.042700
     27 H3          -0.1300    -0.5390     1.8670 hc         1 6SQ       0.062200
     28 H4          -0.9220    -1.7770     0.8970 hc         1 6SQ       0.062200
     29 H5           3.3130    -0.7840     1.8860 ha         1 6SQ       0.115500
     30 H6           5.8920     0.8410    -2.0430 ha         1 6SQ       0.120000
     31 H7           3.4380     0.9300    -2.0660 ha         1 6SQ       0.115500
     32 H8           7.9360    -1.6650     1.3510 hc         1 6SQ       0.059033
     33 H9           9.3850    -0.6340     1.0140 hc         1 6SQ       0.059033
     34 H10          7.9950    -0.0990     2.0420 hc         1 6SQ       0.059033
     35 H11         -5.0560     1.5440     0.8720 ha         1 6SQ       0.150000
     36 H12         -7.0660    -1.5000    -1.4170 ha         1 6SQ       0.132000
     37 H13         -4.9070    -2.7110    -1.7170 ha         1 6SQ       0.122000
     38 H14         -2.8280    -1.8230    -0.7310 ha         1 6SQ       0.118000
     39 H15         -1.3710    -0.1540    -0.8840 hc         1 6SQ       0.063700
     40 H16         -0.0880     2.0390     0.8020 hc         1 6SQ       0.062200
     41 H17         -0.8550     2.2470    -0.7700 hc         1 6SQ       0.062200
     42 H18          0.7980    -1.5910    -0.8670 h1         1 6SQ       0.042700
     43 H19          1.5760    -1.8600     0.6980 h1         1 6SQ       0.042700
     44 H20          5.7620    -0.9020     1.9340 ha         1 6SQ       0.120000
@<TRIPOS>BOND
     1     1     2 1   
     2     1    19 1   
     3     1    25 1   
     4     1    26 1   
     5     2    20 1   
     6     2    21 1   
     7     3    18 1   
     8     3    20 1   
     9     3    27 1   
    10     3    28 1   
    11     4    11 2   
    12     5    21 ar  
    13     5    22 ar  
    14     5    29 1   
    15     6     7 ar  
    16     6     9 1   
    17     6    22 ar  
    18     7     8 ar  
    19     7    30 1   
    20     8    21 ar  
    21     8    31 1   
    22     9    10 1   
    23     9    24 2   
    24    10    32 1   
    25    10    33 1   
    26    10    34 1   
    27    11    12 1   
    28    11    18 1   
    29    12    13 ar  
    30    12    17 ar  
    31    13    14 ar  
    32    13    35 1   
    33    14    15 ar  
    34    14    23 1   
    35    15    16 ar  
    36    15    36 1   
    37    16    17 ar  
    38    16    37 1   
    39    17    38 1   
    40    18    19 1   
    41    18    39 1   
    42    19    40 1   
    43    19    41 1   
    44    20    42 1   
    45    20    43 1   
    46    22    44 1   
@<TRIPOS>SUBSTRUCTURE
     1 6SQ         1 TEMP              0 ****  ****    0 ROOT
