@<TRIPOS>MOLECULE
6SQ
   44    46     1     0     0
SMALL
abcg2


@<TRIPOS>ATOM
      1 C10          1.1780     1.3150    -1.0860 c6         1 6SQ       0.210800
      2 N11          1.7350     0.3300    -0.1780 nh         1 6SQ      -0.807400
      3 C13         -0.5140    -0.4040     0.5240 c6         1 6SQ      -0.076900
      4 O14         -2.6810     2.0980     0.5830 o          1 6SQ      -0.511100
      5 C17          3.6740    -0.6470     0.8950 ca         1 6SQ      -0.195000
      6 C19          5.9160    -0.1290     0.1340 ca         1 6SQ      -0.225600
      7 C20          5.3500     0.6730    -0.8580 ca         1 6SQ      -0.024000
      8 C21          3.9840     0.8190    -0.9820 ca         1 6SQ      -0.195000
      9 C23          7.3830    -0.2590     0.2310 c          1 6SQ       0.590700
     10 C24          7.9500    -1.1420     1.3120 c3         1 6SQ      -0.195100
     11 C1          -2.5050     1.0210     0.0560 c          1 6SQ       0.585700
     12 C2          -3.6430     0.0570    -0.0640 ca         1 6SQ      -0.166600
     13 C3          -4.8270     0.3560     0.6120 ca         1 6SQ      -0.052000
     14 C4          -5.9020    -0.5050     0.5170 ca         1 6SQ       0.105000
     15 C5          -5.8360    -1.6640    -0.2450 ca         1 6SQ      -0.078000
     16 C6          -4.6590    -1.9560    -0.9170 ca         1 6SQ      -0.116000
     17 C7          -3.5670    -1.1050    -0.8270 ca         1 6SQ      -0.076000
     18 C8          -1.1420     0.6050    -0.4470 c6         1 6SQ      -0.158700
     19 C9          -0.1910     1.7820    -0.6110 c6         1 6SQ      -0.076900
     20 C12          0.8650    -0.8170     0.0400 c6         1 6SQ       0.210800
     21 C16          3.0990     0.1660    -0.1020 ca         1 6SQ       0.348000
     22 C18          5.0410    -0.7850     1.0050 ca         1 6SQ      -0.024000
     23 CL          -7.3660    -0.1320     1.3650 cl         1 6SQ      -0.193000
     24 O25          8.1180     0.3300    -0.5420 o          1 6SQ      -0.537100
     25 H1           1.8330     2.1840    -1.1210 h1         1 6SQ       0.042700
     26 H2           1.1050     0.9180    -2.1090 h1         1 6SQ       0.042700
     27 H3          -0.4350     0.0460     1.5180 hc         1 6SQ       0.062200
     28 H4          -1.1270    -1.3010     0.6200 hc         1 6SQ       0.062200
     29 H5           3.0490    -1.1530     1.6160 ha         1 6SQ       0.115500
     30 H6           5.9920     1.1850    -1.5640 ha         1 6SQ       0.120000
     31 H7           3.6090     1.4280    -1.7920 ha         1 6SQ       0.115500
     32 H8           7.6170    -2.1740     1.1870 hc         1 6SQ       0.059033
     33 H9           9.0370    -1.1210     1.2850 hc         1 6SQ       0.059033
     34 H10          7.6190    -0.8180     2.3000 hc         1 6SQ       0.059033
     35 H11         -4.8990     1.2540     1.2100 ha         1 6SQ       0.150000
     36 H12         -6.6870    -2.3270    -0.3130 ha         1 6SQ       0.132000
     37 H13         -4.5970    -2.8540    -1.5150 ha         1 6SQ       0.122000
     38 H14         -2.6660    -1.3610    -1.3670 ha         1 6SQ       0.118000
     39 H15         -1.2550     0.1160    -1.4220 hc         1 6SQ       0.063700
     40 H16         -0.0770     2.3070     0.3400 hc         1 6SQ       0.062200
     41 H17         -0.5820     2.5000    -1.3330 hc         1 6SQ       0.062200
     42 H18          0.7660    -1.3890    -0.8950 h1         1 6SQ       0.042700
     43 H19          1.3060    -1.4880     0.7710 h1         1 6SQ       0.042700
     44 H20          5.4240    -1.4100     1.8020 ha         1 6SQ       0.120000
@<TRIPOS>BOND
     1     1     2 1   
     2     1    19 1   
     3     1    25 1   
     4     1    26 1   
     5     2    20 1   
     6     2    21 1   
     7     3    18 1   
     8     3    20 1   
     9     3    27 1   
    10     3    28 1   
    11     4    11 2   
    12     5    21 ar  
    13     5    22 ar  
    14     5    29 1   
    15     6     7 ar  
    16     6     9 1   
    17     6    22 ar  
    18     7     8 ar  
    19     7    30 1   
    20     8    21 ar  
    21     8    31 1   
    22     9    10 1   
    23     9    24 2   
    24    10    32 1   
    25    10    33 1   
    26    10    34 1   
    27    11    12 1   
    28    11    18 1   
    29    12    13 ar  
    30    12    17 ar  
    31    13    14 ar  
    32    13    35 1   
    33    14    15 ar  
    34    14    23 1   
    35    15    16 ar  
    36    15    36 1   
    37    16    17 ar  
    38    16    37 1   
    39    17    38 1   
    40    18    19 1   
    41    18    39 1   
    42    19    40 1   
    43    19    41 1   
    44    20    42 1   
    45    20    43 1   
    46    22    44 1   
@<TRIPOS>SUBSTRUCTURE
     1 6SQ         1 TEMP              0 ****  ****    0 ROOT
