@<TRIPOS>MOLECULE
6SR
   47    51     1     0     0
SMALL
No Charge or Current Charge


@<TRIPOS>ATOM
      1 C1           2.3210     1.4180    -0.5210 c          1 6SR       0.622700
      2 C2           3.5550     0.6970    -0.0210 ca         1 6SR      -0.150600
      3 C3           4.4810     0.1790    -0.9620 ca         1 6SR      -0.052000
      4 C4           5.6290    -0.4680    -0.4890 ca         1 6SR       0.044100
      5 C5           5.8850    -0.5910     0.8460 ca         1 6SR       0.073100
      6 C6           5.0170    -0.0700     1.8110 ca         1 6SR      -0.108000
      7 C7           3.8470     0.5830     1.3690 ca         1 6SR      -0.083000
      8 O8           6.6060    -1.0150    -1.2560 os         1 6SR      -0.341100
      9 C9           7.5120    -1.6040    -0.2560 c5         1 6SR       0.373600
     10 O10          7.0560    -1.2310     1.0930 os         1 6SR      -0.341100
     11 O11          2.3540     2.0400    -1.5760 o          1 6SR      -0.587100
     12 N12          1.1690     1.4440     0.2950 n          1 6SR      -0.407800
     13 C13          0.7230     0.2470     1.0710 c6         1 6SR       0.087000
     14 C14         -0.4780    -0.4830     0.4040 c6         1 6SR       0.186800
     15 N15         -1.5970     0.4530     0.0770 nh         1 6SR      -0.809400
     16 C16         -1.1530     1.6560    -0.6890 c6         1 6SR       0.186800
     17 C17          0.0360     2.3700     0.0090 c6         1 6SR       0.087000
     18 C18         -2.9260    -0.0120    -0.0520 ca         1 6SR       0.360000
     19 C19         -3.2010    -1.3390    -0.4570 ca         1 6SR      -0.211000
     20 C20         -4.5280    -1.7920    -0.5870 ca         1 6SR       0.006000
     21 C21         -5.5660    -0.8990    -0.2900 ca         1 6SR      -0.242600
     22 C22         -5.3160     0.4040     0.0960 ca         1 6SR      -0.006300
     23 C23         -3.9980     0.8630     0.2200 ca         1 6SR      -0.186000
     24 C24         -6.5830     1.2040     0.3060 c5         1 6SR      -0.036100
     25 C25         -7.6140     0.0210     0.4340 c5         1 6SR      -0.186400
     26 C26         -7.0230    -1.1540    -0.3800 c          1 6SR       0.594700
     27 O27         -7.5520    -1.8900    -1.2020 o          1 6SR      -0.527100
     28 H1           4.3070     0.2680    -2.0320 ha         1 6SR       0.149000
     29 H2           5.2460    -0.1590     2.8700 ha         1 6SR       0.138000
     30 H3           3.1780     1.0170     2.1100 ha         1 6SR       0.126000
     31 H4           7.4890    -2.6960    -0.3520 h2         1 6SR       0.068200
     32 H5           1.5360    -0.4810     1.1850 h1         1 6SR       0.067200
     33 H6           0.4300     0.5690     2.0800 h1         1 6SR       0.067200
     34 H7          -0.1260    -0.9750    -0.5140 h1         1 6SR       0.052950
     35 H8          -0.8250    -1.2710     1.0880 h1         1 6SR       0.052950
     36 H9          -0.8430     1.3570    -1.7020 h1         1 6SR       0.052950
     37 H10         -1.9740     2.3780    -0.8030 h1         1 6SR       0.052950
     38 H11         -0.3180     2.7950     0.9580 h1         1 6SR       0.067200
     39 H12          0.3700     3.2130    -0.6110 h1         1 6SR       0.067200
     40 H13         -2.3890    -2.0210    -0.6880 ha         1 6SR       0.114000
     41 H14         -4.7390    -2.8110    -0.9080 ha         1 6SR       0.128000
     42 H15         -3.8060     1.8850     0.5310 ha         1 6SR       0.117000
     43 H16         -6.5540     1.8370     1.2010 hc         1 6SR       0.059700
     44 H17         -7.6090    -0.2900     1.4850 hc         1 6SR       0.073700
     45 H19          8.5310    -1.2350    -0.4170 h2         1 6SR       0.068200
     46 H18         -6.8010     1.8450    -0.5560 hc         1 6SR       0.059700
     47 H20         -8.6370     0.2590     0.1250 hc         1 6SR       0.073700
@<TRIPOS>BOND
     1     1     2 1   
     2     1    11 2   
     3     1    12 1   
     4     2     3 ar  
     5     2     7 ar  
     6     3     4 ar  
     7     3    28 1   
     8     4     5 ar  
     9     4     8 1   
    10     5     6 ar  
    11     5    10 1   
    12     6     7 ar  
    13     6    29 1   
    14     7    30 1   
    15     8     9 1   
    16     9    10 1   
    17     9    31 1   
    18     9    45 1   
    19    12    13 1   
    20    12    17 1   
    21    13    14 1   
    22    13    32 1   
    23    13    33 1   
    24    14    15 1   
    25    14    34 1   
    26    14    35 1   
    27    15    16 1   
    28    15    18 1   
    29    16    17 1   
    30    16    36 1   
    31    16    37 1   
    32    17    38 1   
    33    17    39 1   
    34    18    19 ar  
    35    18    23 ar  
    36    19    20 ar  
    37    19    40 1   
    38    20    21 ar  
    39    20    41 1   
    40    21    22 ar  
    41    21    26 1   
    42    22    23 ar  
    43    22    24 1   
    44    23    42 1   
    45    24    25 1   
    46    24    43 1   
    47    24    46 1   
    48    25    26 1   
    49    25    44 1   
    50    25    47 1   
    51    26    27 2   
@<TRIPOS>SUBSTRUCTURE
     1 6SR         1 TEMP              0 ****  ****    0 ROOT
