@<TRIPOS>MOLECULE
6SR
   47    51     1     0     0
SMALL
bcc


@<TRIPOS>ATOM
      1 C1           2.2990     1.6460    -0.1890 c          1 6SR       0.689700
      2 C2           3.4590     0.7560     0.1170 ca         1 6SR      -0.150600
      3 C3           4.1940     0.2380    -0.9620 ca         1 6SR      -0.070000
      4 C4           5.3080    -0.4980    -0.6570 ca         1 6SR       0.044100
      5 C5           5.7240    -0.6990     0.6510 ca         1 6SR       0.073100
      6 C6           5.0340    -0.1790     1.7180 ca         1 6SR      -0.126000
      7 C7           3.8800     0.5540     1.4250 ca         1 6SR      -0.101000
      8 O8           6.1560    -1.1330    -1.5000 os         1 6SR      -0.317900
      9 C9           7.2300    -1.6160    -0.7030 c5         1 6SR       0.327200
     10 O10          6.8410    -1.4580     0.6570 os         1 6SR      -0.317900
     11 O11          2.4320     2.5510    -1.0020 o          1 6SR      -0.587100
     12 N12          1.1500     1.4400     0.4920 n          1 6SR      -0.474800
     13 C13          0.7580     0.2010     1.1350 c6         1 6SR       0.087000
     14 C14         -0.4100    -0.4510     0.4070 c6         1 6SR       0.186800
     15 N15         -1.5190     0.4680     0.2450 nh         1 6SR      -0.671000
     16 C16         -1.1220     1.7250    -0.3730 c6         1 6SR       0.186800
     17 C17          0.0370     2.3590     0.3730 c6         1 6SR       0.087000
     18 C18         -2.8020    -0.0030     0.1020 ca         1 6SR       0.221600
     19 C19         -3.0760    -1.3960     0.0970 ca         1 6SR      -0.229000
     20 C20         -4.3630    -1.8760     0.0070 ca         1 6SR      -0.012000
     21 C21         -5.4230    -0.9810    -0.0940 ca         1 6SR      -0.242600
     22 C22         -5.1750     0.3880    -0.1090 ca         1 6SR      -0.006300
     23 C23         -3.8920     0.8830    -0.0170 ca         1 6SR      -0.204000
     24 C24         -6.4550     1.1710    -0.2250 c5         1 6SR      -0.036100
     25 C25         -7.5570     0.1040    -0.2670 c5         1 6SR      -0.186400
     26 C26         -6.8520    -1.2420    -0.1930 c          1 6SR       0.594700
     27 O27         -7.3980    -2.3280    -0.2110 o          1 6SR      -0.527100
     28 H1           3.8830     0.4000    -1.9860 ha         1 6SR       0.167000
     29 H2           5.3620    -0.3250     2.7380 ha         1 6SR       0.156000
     30 H3           3.3190     0.9840     2.2460 ha         1 6SR       0.144000
     31 H4           7.4050    -2.6700    -0.9160 h2         1 6SR       0.068200
     32 H5           1.5810    -0.5080     1.1490 h1         1 6SR       0.067200
     33 H6           0.4750     0.4060     2.1710 h1         1 6SR       0.067200
     34 H7          -0.0720    -0.8420    -0.5620 h1         1 6SR       0.052950
     35 H8          -0.7130    -1.3000     1.0160 h1         1 6SR       0.052950
     36 H9          -0.8400     1.5580    -1.4210 h1         1 6SR       0.052950
     37 H10         -1.9420     2.4360    -0.3690 h1         1 6SR       0.052950
     38 H11         -0.2880     2.6400     1.3790 h1         1 6SR       0.067200
     39 H12          0.3500     3.2620    -0.1440 h1         1 6SR       0.067200
     40 H13         -2.2710    -2.1140     0.1410 ha         1 6SR       0.132000
     41 H14         -4.5340    -2.9460     0.0020 ha         1 6SR       0.146000
     42 H15         -3.7480     1.9540    -0.0120 ha         1 6SR       0.135000
     43 H16         -6.5730     1.8520     0.6200 hc         1 6SR       0.059700
     44 H17         -8.2550     0.1930     0.5690 hc         1 6SR       0.073700
     45 H19          8.1330    -1.0300    -0.9000 h2         1 6SR       0.068200
     46 H18         -6.4500     1.7900    -1.1240 hc         1 6SR       0.059700
     47 H20         -8.1560     0.1530    -1.1790 hc         1 6SR       0.073700
@<TRIPOS>BOND
     1     1     2 1   
     2     1    11 2   
     3     1    12 1   
     4     2     3 ar  
     5     2     7 ar  
     6     3     4 ar  
     7     3    28 1   
     8     4     5 ar  
     9     4     8 1   
    10     5     6 ar  
    11     5    10 1   
    12     6     7 ar  
    13     6    29 1   
    14     7    30 1   
    15     8     9 1   
    16     9    10 1   
    17     9    31 1   
    18     9    45 1   
    19    12    13 1   
    20    12    17 1   
    21    13    14 1   
    22    13    32 1   
    23    13    33 1   
    24    14    15 1   
    25    14    34 1   
    26    14    35 1   
    27    15    16 1   
    28    15    18 1   
    29    16    17 1   
    30    16    36 1   
    31    16    37 1   
    32    17    38 1   
    33    17    39 1   
    34    18    19 ar  
    35    18    23 ar  
    36    19    20 ar  
    37    19    40 1   
    38    20    21 ar  
    39    20    41 1   
    40    21    22 ar  
    41    21    26 1   
    42    22    23 ar  
    43    22    24 1   
    44    23    42 1   
    45    24    25 1   
    46    24    43 1   
    47    24    46 1   
    48    25    26 1   
    49    25    44 1   
    50    25    47 1   
    51    26    27 2   
@<TRIPOS>SUBSTRUCTURE
     1 6SR         1 TEMP              0 ****  ****    0 ROOT
