@<TRIPOS>MOLECULE
6SS
   61    65     1     0     0
SMALL
bcc


@<TRIPOS>ATOM
      1 C2          -4.5440     1.4590    -1.1230 ca         1 6SS      -0.028600
      2 C3          -4.8490     2.6510    -0.4900 ca         1 6SS      -0.093000
      3 C4          -3.8130     3.4590    -0.0480 ca         1 6SS      -0.141000
      4 C5          -2.4940     3.0750    -0.2280 ca         1 6SS      -0.075000
      5 C6          -2.1640     1.8690    -0.8450 ca         1 6SS      -0.100300
      6 C7          -0.7450     1.4000    -1.0220 c5         1 6SS       0.005600
      7 C12          1.6370     1.6660    -0.8600 c5         1 6SS       0.174500
      8 C17          3.3460    -0.5840     0.4190 ca         1 6SS      -0.053300
      9 C18          3.3550    -1.6620    -0.4680 ca         1 6SS      -0.146000
     10 C19          4.5600    -2.1670    -0.9170 ca         1 6SS      -0.097000
     11 C21          5.7660    -0.5480     0.3820 ca         1 6SS       0.144100
     12 C23          8.1460    -0.3990     0.4320 c3         1 6SS       0.142400
     13 C24          9.1980     0.4360     1.1230 c3         1 6SS      -0.094100
     14 C27         -0.8610    -0.8850     0.0980 ca         1 6SS      -0.142300
     15 C30         -2.3610    -3.1430     0.5010 ca         1 6SS       0.068400
     16 C32         -2.4780    -2.1110     1.4270 ca         1 6SS      -0.161000
     17 C33         -1.7010    -0.9910     1.1990 ca         1 6SS       0.075600
     18 C35         -0.6690     1.0210     1.4790 c          1 6SS       0.680500
     19 C37         -3.2200     1.0890    -1.2980 ca         1 6SS       0.149900
     20 CL1         -5.7900     0.4210    -1.7090 cl         1 6SS      -0.082400
     21 C9           0.3340     2.4820    -1.0630 c5         1 6SS       0.150500
     22 N11          0.2030     3.3220    -2.2250 n8         1 6SS      -0.883800
     23 C14          2.3450     1.3220    -2.1630 c3         1 6SS      -0.096100
     24 N15          1.2000     0.4630    -0.1490 n3         1 6SS      -0.758600
     25 C20          5.7730    -1.6200    -0.5030 ca         1 6SS      -0.217000
     26 O22          6.8710     0.0590     0.8570 os         1 6SS      -0.327900
     27 C25          4.5450    -0.0350     0.8350 ca         1 6SS      -0.160000
     28 C26         -0.2170     0.4690     0.0990 c5         1 6SS       0.199500
     29 C28         -0.7510    -1.9270    -0.7930 ca         1 6SS      -0.042000
     30 C29         -1.5100    -3.0780    -0.5920 ca         1 6SS      -0.154000
     31 CL2         -3.3120    -4.5740     0.7410 cl         1 6SS      -0.108400
     32 N34         -1.5890     0.1520     1.9800 ns         1 6SS      -0.467100
     33 O36         -0.2840     2.0360     2.0170 o          1 6SS      -0.601500
     34 F38         -2.9710    -0.0540    -1.9420 f          1 6SS      -0.126900
     35 H1          -5.8810     2.9430    -0.3520 ha         1 6SS       0.149000
     36 H2          -4.0400     4.3990     0.4350 ha         1 6SS       0.141000
     37 H3          -1.7090     3.7340     0.1140 ha         1 6SS       0.151000
     38 H4          -0.6810     0.8210    -1.9500 hc         1 6SS       0.083700
     39 H5           2.3250     2.2470    -0.2320 h1         1 6SS       0.051700
     40 H6           1.4980    -0.8300     1.4320 h1         1 6SS       0.048700
     41 H7           2.2380     0.7450     1.6770 h1         1 6SS       0.048700
     42 H8           2.4200    -2.0880    -0.8090 ha         1 6SS       0.139000
     43 H9           4.5720    -3.0030    -1.6050 ha         1 6SS       0.128000
     44 H10          8.2370    -0.3080    -0.6560 h1         1 6SS       0.032700
     45 H11          8.2730    -1.4570     0.6860 h1         1 6SS       0.032700
     46 H12          9.0980     1.4920     0.8730 hc         1 6SS       0.047367
     47 H13          9.1430     0.3280     2.2060 hc         1 6SS       0.047367
     48 H14         10.1870     0.1090     0.8030 hc         1 6SS       0.047367
     49 H15         -3.1350    -2.1890     2.2820 ha         1 6SS       0.156000
     50 H16          0.2290     3.1250    -0.1880 h1         1 6SS       0.080700
     51 H17          0.8700     4.0820    -2.1890 hn         1 6SS       0.348800
     52 H18          0.3960     2.8060    -3.0750 hn         1 6SS       0.348800
     53 H20          2.6800     2.2230    -2.6790 hc         1 6SS       0.041700
     54 H21          3.2220     0.7070    -1.9700 hc         1 6SS       0.041700
     55 H22          1.6940     0.7590    -2.8340 hc         1 6SS       0.041700
     56 H24          6.6960    -2.0410    -0.8780 ha         1 6SS       0.134000
     57 H25          4.5500     0.8040     1.5210 ha         1 6SS       0.144000
     58 H26         -0.0810    -1.8590    -1.6410 ha         1 6SS       0.149000
     59 H27         -1.4380    -3.9090    -1.2790 ha         1 6SS       0.152000
     60 H28         -2.0360     0.2740     2.8770 hn         1 6SS       0.340500
     61 C16          2.0390    -0.0260     0.9210 c3         1 6SS       0.241100
@<TRIPOS>BOND
     1     1     2 ar  
     2     1    19 ar  
     3     1    20 1   
     4     2     3 ar  
     5     2    35 1   
     6     3     4 ar  
     7     3    36 1   
     8     4     5 ar  
     9     4    37 1   
    10     5     6 1   
    11     5    19 ar  
    12     6    21 1   
    13     6    28 1   
    14     6    38 1   
    15     7    21 1   
    16     7    23 1   
    17     7    24 1   
    18     7    39 1   
    19     8     9 ar  
    20     8    27 ar  
    21     8    61 1   
    22     9    10 ar  
    23     9    42 1   
    24    10    25 ar  
    25    10    43 1   
    26    11    25 ar  
    27    11    26 1   
    28    11    27 ar  
    29    12    13 1   
    30    12    26 1   
    31    12    44 1   
    32    12    45 1   
    33    13    46 1   
    34    13    47 1   
    35    13    48 1   
    36    14    17 ar  
    37    14    28 1   
    38    14    29 ar  
    39    15    16 ar  
    40    15    30 ar  
    41    15    31 1   
    42    16    17 ar  
    43    16    49 1   
    44    17    32 1   
    45    18    28 1   
    46    18    32 1   
    47    18    33 2   
    48    19    34 1   
    49    21    22 1   
    50    21    50 1   
    51    22    51 1   
    52    22    52 1   
    53    23    53 1   
    54    23    54 1   
    55    23    55 1   
    56    24    28 1   
    57    24    61 1   
    58    25    56 1   
    59    27    57 1   
    60    29    30 ar  
    61    29    58 1   
    62    30    59 1   
    63    32    60 1   
    64    40    61 1   
    65    41    61 1   
@<TRIPOS>SUBSTRUCTURE
     1 6SS         1 TEMP              0 ****  ****    0 ROOT
