@<TRIPOS>MOLECULE
6SS
   61    65     1     0     0
SMALL
No Charge or Current Charge


@<TRIPOS>ATOM
      1 C2          -4.5700     2.4460    -0.0900 ca         1 6SS       0.063000
      2 C3          -4.2490     3.7610     0.2760 ca         1 6SS      -0.075000
      3 C4          -2.9290     4.2160     0.1440 ca         1 6SS      -0.123000
      4 C5          -1.9290     3.3640    -0.3550 ca         1 6SS      -0.057000
      5 C6          -2.2320     2.0320    -0.7380 ca         1 6SS      -0.100300
      6 C7          -1.1730     1.0410    -1.2860 c5         1 6SS       0.005600
      7 C12          1.1440     1.7080    -0.8640 c5         1 6SS       0.174500
      8 C17          3.2760    -0.5700     0.1620 ca         1 6SS      -0.053300
      9 C18          3.4460    -1.4450    -0.9280 ca         1 6SS      -0.128000
     10 C19          4.7340    -1.7800    -1.3770 ca         1 6SS      -0.079000
     11 C21          5.7060    -0.3740     0.3620 ca         1 6SS       0.144100
     12 C23          8.1390    -0.0920     0.6560 c3         1 6SS       0.165600
     13 C24          9.0510     0.6890     1.6150 c3         1 6SS      -0.094100
     14 C27         -1.0280    -1.1980    -0.1480 ca         1 6SS      -0.142300
     15 C30         -2.2070    -3.7020     0.2460 ca         1 6SS       0.160000
     16 C32         -2.3160    -2.7220     1.2520 ca         1 6SS      -0.143000
     17 C33         -1.7120    -1.4830     1.0170 ca         1 6SS      -0.017000
     18 C35         -0.9440     0.7220     1.3600 c          1 6SS       0.538000
     19 C37         -3.5700     1.5900    -0.5920 ca         1 6SS       0.185000
     20 Cl1         -6.2300     1.8810     0.0940 cl         1 6SS      -0.174000
     21 C9           0.0320     1.7810    -1.9810 c5         1 6SS       0.150500
     22 N11          0.4220     1.0870    -3.2350 n8         1 6SS      -0.994200
     23 C14          2.5560     2.1110    -1.3530 c3         1 6SS      -0.096100
     24 N15          0.9740     0.2960    -0.4210 n3         1 6SS      -0.758600
     25 C20          5.8650    -1.2470    -0.7360 ca         1 6SS      -0.199000
     26 O22          6.7780     0.1790     1.0330 os         1 6SS      -0.351100
     27 C25          4.4150    -0.0450     0.8060 ca         1 6SS      -0.142000
     28 C26         -0.4910     0.2350    -0.1020 c5         1 6SS       0.199500
     29 C28         -0.9020    -2.1690    -1.1550 ca         1 6SS      -0.024000
     30 C29         -1.5020    -3.4300    -0.9490 ca         1 6SS      -0.136000
     31 Cl2         -2.9460    -5.2800     0.4830 cl         1 6SS      -0.200000
     32 N34         -1.6490    -0.3640     1.8370 ns         1 6SS      -0.141000
     33 O36         -0.6940     1.7450     1.9900 o          1 6SS      -0.526000
     34 F38         -3.9000     0.3190    -0.9250 f          1 6SS      -0.162000
     35 H1          -5.0200     4.4220     0.6640 ha         1 6SS       0.131000
     36 H2          -2.6770     5.2340     0.4360 ha         1 6SS       0.123000
     37 H3          -0.9180     3.7550    -0.4180 ha         1 6SS       0.133000
     38 H4          -1.6370     0.3630    -2.0110 hc         1 6SS       0.083700
     39 H5           0.8950     2.3980    -0.0460 h1         1 6SS       0.051700
     40 H6           1.4480    -1.1240     1.0860 h1         1 6SS       0.048700
     41 H7           1.9440     0.5240     1.4630 h1         1 6SS       0.048700
     42 H8           2.5750    -1.8590    -1.4300 ha         1 6SS       0.121000
     43 H9           4.8550    -2.4540    -2.2230 ha         1 6SS       0.110000
     44 H10          8.3300     0.2320    -0.3750 h1         1 6SS       0.032700
     45 H11          8.3590    -1.1650     0.7360 h1         1 6SS       0.032700
     46 H12          8.8560     1.7660     1.5420 hc         1 6SS       0.047367
     47 H13          8.8850     0.3710     2.6520 hc         1 6SS       0.047367
     48 H14         10.1030     0.5120     1.3660 hc         1 6SS       0.047367
     49 H15         -2.8490    -2.9260     2.1770 ha         1 6SS       0.138000
     50 H16         -0.2100     2.8170    -2.2580 h1         1 6SS       0.080700
     51 H17          1.2320     1.5690    -3.6390 hn         1 6SS       0.404000
     52 H18          0.8200     0.1880    -2.9410 hn         1 6SS       0.404000
     53 H20          2.5320     3.0900    -1.8460 hc         1 6SS       0.041700
     54 H21          3.2540     2.1900    -0.5130 hc         1 6SS       0.041700
     55 H22          2.9650     1.3840    -2.0640 hc         1 6SS       0.041700
     56 H24          6.8500    -1.5220    -1.1030 ha         1 6SS       0.116000
     57 H25          4.3010     0.6280     1.6520 ha         1 6SS       0.126000
     58 H26         -0.3550    -1.9540    -2.0700 ha         1 6SS       0.131000
     59 H27         -1.4220    -4.1970    -1.7140 ha         1 6SS       0.134000
     60 H28         -2.0370    -0.3720     2.7710 hn         1 6SS       0.174000
     61 C16          1.8740    -0.2110     0.6490 c3         1 6SS       0.241100
@<TRIPOS>BOND
     1     1     2 ar  
     2     1    19 ar  
     3     1    20 1   
     4     2     3 ar  
     5     2    35 1   
     6     3     4 ar  
     7     3    36 1   
     8     4     5 ar  
     9     4    37 1   
    10     5     6 1   
    11     5    19 ar  
    12     6    21 1   
    13     6    28 1   
    14     6    38 1   
    15     7    21 1   
    16     7    23 1   
    17     7    24 1   
    18     7    39 1   
    19     8     9 ar  
    20     8    27 ar  
    21     8    61 1   
    22     9    10 ar  
    23     9    42 1   
    24    10    25 ar  
    25    10    43 1   
    26    11    25 ar  
    27    11    26 1   
    28    11    27 ar  
    29    12    13 1   
    30    12    26 1   
    31    12    44 1   
    32    12    45 1   
    33    13    46 1   
    34    13    47 1   
    35    13    48 1   
    36    14    17 ar  
    37    14    28 1   
    38    14    29 ar  
    39    15    16 ar  
    40    15    30 ar  
    41    15    31 1   
    42    16    17 ar  
    43    16    49 1   
    44    17    32 1   
    45    18    28 1   
    46    18    32 1   
    47    18    33 2   
    48    19    34 1   
    49    21    22 1   
    50    21    50 1   
    51    22    51 1   
    52    22    52 1   
    53    23    53 1   
    54    23    54 1   
    55    23    55 1   
    56    24    28 1   
    57    24    61 1   
    58    25    56 1   
    59    27    57 1   
    60    29    30 ar  
    61    29    58 1   
    62    30    59 1   
    63    32    60 1   
    64    40    61 1   
    65    41    61 1   
@<TRIPOS>SUBSTRUCTURE
     1 6SS         1 TEMP              0 ****  ****    0 ROOT
