@<TRIPOS>MOLECULE
6ST
   64    70     1     0     0
SMALL
No Charge or Current Charge


@<TRIPOS>ATOM
      1 C2         -13.2790     8.9240    -6.6540 c          1 6ST       0.704600
      2 C4         -12.2620     9.2470    -5.5680 ca         1 6ST      -0.118600
      3 C5         -11.8930    10.5830    -5.2930 ca         1 6ST      -0.093000
      4 C6         -10.9540    10.8790    -4.2900 ca         1 6ST      -0.130500
      5 C7         -10.3560     9.8530    -3.5320 ca         1 6ST      -0.129300
      6 C8         -10.7210     8.5170    -3.8050 ca         1 6ST      -0.130500
      7 C12         -9.9680     9.8560    -1.0750 c5         1 6ST      -0.100400
      8 C15         -7.5410     9.5190    -1.1090 c5         1 6ST       0.153500
      9 C18         -6.6110    10.7880    -1.0660 c5         1 6ST       0.004600
     10 C21         -4.5200     9.2780    -0.6160 ca         1 6ST      -0.076000
     11 C23         -2.3010     9.9560    -1.3570 ca         1 6ST      -0.082000
     12 C24         -2.8470    11.1240    -1.9060 ca         1 6ST       0.073000
     13 C32         -5.5020    12.9280     1.4010 ca         1 6ST      -0.019000
     14 C33         -4.8340    14.1230     1.6860 ca         1 6ST      -0.149000
     15 C34         -5.1420    15.2470     0.8950 ca         1 6ST       0.158000
     16 C36         -6.1020    15.1560    -0.1390 ca         1 6ST      -0.135000
     17 C37         -6.7620    13.9360    -0.4010 ca         1 6ST      -0.020000
     18 C38         -6.4310    12.8210     0.3860 ca         1 6ST      -0.130300
     19 O1         -13.7730     9.8460    -7.2880 o          1 6ST      -0.722000
     20 O3         -13.5690     7.7530    -6.8570 o          1 6ST      -0.722000
     21 C9         -11.6610     8.2180    -4.8080 ca         1 6ST      -0.093000
     22 C10         -9.3390    10.2090    -2.4460 c5         1 6ST       0.207800
     23 C13         -8.7250     9.9060    -0.1360 c5         1 6ST       0.155500
     24 N17         -8.1130     9.3840    -2.4840 n7         1 6ST      -0.826400
     25 C20         -5.0980    10.4540    -1.1610 ca         1 6ST      -0.086300
     26 C22         -3.1390     9.0350    -0.7130 ca         1 6ST      -0.123000
     27 C26         -4.2310    11.3700    -1.8100 ca         1 6ST       0.189000
     28 F27         -4.7280    12.5080    -2.3520 f          1 6ST      -0.161000
     29 C28         -6.9680    11.3910     0.3300 c5         1 6ST       0.185500
     30 C29         -6.2220    10.6830     1.5540 c          1 6ST       0.533000
     31 O30         -6.3350     9.5580     2.0330 o          1 6ST      -0.533000
     32 N31         -5.4090    11.6910     2.0320 ns         1 6ST      -0.148000
     33 N39         -8.4610    11.3220     0.2880 n3         1 6ST      -0.718600
     34 C41        -10.6510    11.9710     1.4210 cx         1 6ST      -0.122700
     35 C42        -11.3490    13.1330     2.0930 cx         1 6ST      -0.128400
     36 C43        -11.2540    13.0770     0.5860 cx         1 6ST      -0.128400
     37 H1         -12.3350    11.4010    -5.8570 ha         1 6ST       0.129000
     38 H2         -10.6900    11.9160    -4.0990 ha         1 6ST       0.091500
     39 H3         -10.2800     7.7010    -3.2390 ha         1 6ST       0.091500
     40 H4         -10.7690    10.5480    -0.8100 hc         1 6ST       0.060700
     41 H5         -10.4020     8.8510    -1.0700 hc         1 6ST       0.060700
     42 H6          -7.0580     8.5900    -0.7850 h1         1 6ST       0.064700
     43 H7          -6.9110    11.4890    -1.8510 hc         1 6ST       0.102700
     44 H8          -5.1200     8.5400    -0.0930 ha         1 6ST       0.133000
     45 H9          -1.2330     9.7660    -1.4300 ha         1 6ST       0.126000
     46 H10         -4.1060    14.1860     2.4900 ha         1 6ST       0.133000
     47 H11         -6.3350    16.0340    -0.7360 ha         1 6ST       0.135000
     48 H12         -7.5060    13.8590    -1.1900 ha         1 6ST       0.143000
     49 H13         -8.9240    11.1190     2.3550 h1         1 6ST       0.037200
     50 H14         -8.7180    12.7750     1.8010 h1         1 6ST       0.037200
     51 H16        -11.9200     7.1770    -4.9920 ha         1 6ST       0.129000
     52 H17         -9.0890    11.2800    -2.4870 h1         1 6ST       0.065700
     53 H18         -8.8050     9.2200     0.7190 h1         1 6ST       0.051700
     54 H19         -8.4150     8.4140    -2.6150 hn         1 6ST       0.415000
     55 H21         -2.7170     8.1290    -0.2840 ha         1 6ST       0.119000
     56 H22         -4.8170    11.5550     2.8410 hn         1 6ST       0.168000
     57 H24        -11.1770    11.0200     1.4400 hc         1 6ST       0.081700
     58 H25        -10.7390    13.8700     2.6100 hc         1 6ST       0.071200
     59 H26        -12.3190    12.9460     2.5470 hc         1 6ST       0.071200
     60 H27        -10.5740    13.7670     0.0920 hc         1 6ST       0.071200
     61 H28        -12.1580    12.8510     0.0260 hc         1 6ST       0.071200
     62 Cl2         -1.7790    12.2760    -2.7090 cl         1 6ST      -0.187000
     63 C40         -9.1390    11.8010     1.5210 c3         1 6ST       0.207800
     64 Cl3         -4.3340    16.7770     1.2040 cl         1 6ST      -0.218000
@<TRIPOS>BOND
     1     1     2 1   
     2     1    19 1   
     3     1    20 1   
     4     2     3 ar  
     5     2    21 ar  
     6     3     4 ar  
     7     3    37 1   
     8     4     5 ar  
     9     4    38 1   
    10     5     6 ar  
    11     5    22 1   
    12     6    21 ar  
    13     6    39 1   
    14     7    22 1   
    15     7    23 1   
    16     7    40 1   
    17     7    41 1   
    18     8     9 1   
    19     8    23 1   
    20     8    24 1   
    21     8    42 1   
    22     9    25 1   
    23     9    29 1   
    24     9    43 1   
    25    10    25 ar  
    26    10    26 ar  
    27    10    44 1   
    28    11    12 ar  
    29    11    26 ar  
    30    11    45 1   
    31    12    27 ar  
    32    12    62 1   
    33    13    14 ar  
    34    13    18 ar  
    35    13    32 1   
    36    14    15 ar  
    37    14    46 1   
    38    15    16 ar  
    39    15    64 1   
    40    16    17 ar  
    41    16    47 1   
    42    17    18 ar  
    43    17    48 1   
    44    18    29 1   
    45    21    51 1   
    46    22    24 1   
    47    22    52 1   
    48    23    33 1   
    49    23    53 1   
    50    24    54 1   
    51    25    27 ar  
    52    26    55 1   
    53    27    28 1   
    54    29    30 1   
    55    29    33 1   
    56    30    31 2   
    57    30    32 1   
    58    32    56 1   
    59    33    63 1   
    60    34    35 1   
    61    34    36 1   
    62    34    57 1   
    63    34    63 1   
    64    35    36 1   
    65    35    58 1   
    66    35    59 1   
    67    36    60 1   
    68    36    61 1   
    69    49    63 1   
    70    50    63 1   
@<TRIPOS>SUBSTRUCTURE
     1 6ST         1 TEMP              0 ****  ****    0 ROOT
