@<TRIPOS>MOLECULE
6ST
   64    70     1     0     0
SMALL
abcg2


@<TRIPOS>ATOM
      1 C2         -12.8500     8.6390    -6.9450 c          1 6ST       0.704600
      2 C4         -11.9820     9.0160    -5.7470 ca         1 6ST      -0.118600
      3 C5         -12.5540     9.4470    -4.5500 ca         1 6ST      -0.093000
      4 C6         -11.7640     9.7950    -3.4600 ca         1 6ST      -0.130500
      5 C7         -10.3720     9.7230    -3.5320 ca         1 6ST      -0.129300
      6 C8          -9.7970     9.2940    -4.7320 ca         1 6ST      -0.130500
      7 C12        -10.1560    10.1850    -0.9860 c5         1 6ST      -0.100400
      8 C15         -7.8040     9.5500    -0.8700 c5         1 6ST       0.153500
      9 C18         -6.7510    10.6710    -0.9200 c5         1 6ST       0.004600
     10 C21         -4.7560     9.1350    -0.4870 ca         1 6ST      -0.076000
     11 C23         -2.5950     9.5890    -1.4550 ca         1 6ST      -0.082000
     12 C24         -3.1320    10.6980    -2.0900 ca         1 6ST       0.073000
     13 C32         -5.4640    12.9770     1.3260 ca         1 6ST      -0.019000
     14 C33         -4.7090    14.1210     1.5150 ca         1 6ST      -0.149000
     15 C34         -4.9770    15.1880     0.6590 ca         1 6ST       0.158000
     16 C36         -5.9450    15.1300    -0.3360 ca         1 6ST      -0.135000
     17 C37         -6.6820    13.9550    -0.5010 ca         1 6ST      -0.020000
     18 C38         -6.4350    12.8810     0.3270 ca         1 6ST      -0.130300
     19 O1         -14.0970     8.7140    -6.7950 o          1 6ST      -0.722000
     20 O3         -12.2530     8.2850    -7.9940 o          1 6ST      -0.722000
     21 C9         -10.5900     8.9450    -5.8170 ca         1 6ST      -0.093000
     22 C10         -9.4990    10.1350    -2.3740 c5         1 6ST       0.207800
     23 C13         -8.9640    10.1480    -0.0190 c5         1 6ST       0.155500
     24 N17         -8.3250     9.2500    -2.2060 n7         1 6ST      -0.826400
     25 C20         -5.3170    10.2520    -1.1090 ca         1 6ST      -0.086300
     26 C22         -3.4170     8.8070    -0.6540 ca         1 6ST      -0.123000
     27 C26         -4.4740    11.0130    -1.9140 ca         1 6ST       0.189000
     28 F27         -4.9650    12.0950    -2.5540 f          1 6ST      -0.161000
     29 C28         -7.0420    11.5040     0.3560 c5         1 6ST       0.185500
     30 C29         -6.3450    10.8790     1.6070 c          1 6ST       0.533000
     31 O30         -6.5790     9.7930     2.1060 o          1 6ST      -0.533000
     32 N31         -5.4260    11.7840     2.0550 ns         1 6ST      -0.148000
     33 N39         -8.4970    11.4760     0.4040 n3         1 6ST      -0.718600
     34 C41        -10.5390    12.3380     1.5240 cx         1 6ST      -0.122700
     35 C42        -11.0760    13.5120     2.2970 cx         1 6ST      -0.128400
     36 C43        -10.9510    13.5830     0.7950 cx         1 6ST      -0.128400
     37 H1         -13.6320     9.5060    -4.4790 ha         1 6ST       0.129000
     38 H2         -12.2420    10.1270    -2.5470 ha         1 6ST       0.091500
     39 H3          -8.7200     9.2330    -4.8110 ha         1 6ST       0.091500
     40 H4         -10.7770    11.0650    -0.8370 hc         1 6ST       0.060700
     41 H5         -10.7750     9.2960    -0.8410 hc         1 6ST       0.060700
     42 H6          -7.4040     8.6470    -0.4220 h1         1 6ST       0.064700
     43 H7          -7.0270    11.3260    -1.7450 hc         1 6ST       0.102700
     44 H8          -5.3750     8.5190     0.1490 ha         1 6ST       0.133000
     45 H9          -1.5500     9.3460    -1.5940 ha         1 6ST       0.126000
     46 H10         -3.9570    14.1920     2.2880 ha         1 6ST       0.133000
     47 H11         -6.1200    15.9860    -0.9710 ha         1 6ST       0.135000
     48 H12         -7.4400    13.8930    -1.2710 ha         1 6ST       0.143000
     49 H13         -8.9290    11.2930     2.4700 h1         1 6ST       0.037200
     50 H14         -8.5280    12.9130     1.8900 h1         1 6ST       0.037200
     51 H16        -10.1330     8.6130    -6.7400 ha         1 6ST       0.129000
     52 H17         -9.1100    11.1370    -2.5910 h1         1 6ST       0.065700
     53 H18         -9.1780     9.5210     0.8520 h1         1 6ST       0.051700
     54 H19         -8.6510     8.2880    -2.2240 hn         1 6ST       0.415000
     55 H21         -3.0090     7.9360    -0.1610 ha         1 6ST       0.119000
     56 H22         -4.8530    11.6300     2.8720 hn         1 6ST       0.168000
     57 H24        -11.2050    11.4880     1.4370 hc         1 6ST       0.081700
     58 H25        -10.3740    14.0860     2.8890 hc         1 6ST       0.071200
     59 H26        -12.0670    13.4320     2.7240 hc         1 6ST       0.071200
     60 H27        -10.1600    14.1980     0.3840 hc         1 6ST       0.071200
     61 H28        -11.8570    13.5560     0.2030 hc         1 6ST       0.071200
     62 CL2         -2.1400    11.7040    -3.1070 cl         1 6ST      -0.187000
     63 C40         -9.0750    12.0010     1.6390 c3         1 6ST       0.207800
     64 CL3         -4.0520    16.6620     0.8550 cl         1 6ST      -0.218000
@<TRIPOS>BOND
     1     1     2 1   
     2     1    19 1   
     3     1    20 1   
     4     2     3 ar  
     5     2    21 ar  
     6     3     4 ar  
     7     3    37 1   
     8     4     5 ar  
     9     4    38 1   
    10     5     6 ar  
    11     5    22 1   
    12     6    21 ar  
    13     6    39 1   
    14     7    22 1   
    15     7    23 1   
    16     7    40 1   
    17     7    41 1   
    18     8     9 1   
    19     8    23 1   
    20     8    24 1   
    21     8    42 1   
    22     9    25 1   
    23     9    29 1   
    24     9    43 1   
    25    10    25 ar  
    26    10    26 ar  
    27    10    44 1   
    28    11    12 ar  
    29    11    26 ar  
    30    11    45 1   
    31    12    27 ar  
    32    12    62 1   
    33    13    14 ar  
    34    13    18 ar  
    35    13    32 1   
    36    14    15 ar  
    37    14    46 1   
    38    15    16 ar  
    39    15    64 1   
    40    16    17 ar  
    41    16    47 1   
    42    17    18 ar  
    43    17    48 1   
    44    18    29 1   
    45    21    51 1   
    46    22    24 1   
    47    22    52 1   
    48    23    33 1   
    49    23    53 1   
    50    24    54 1   
    51    25    27 ar  
    52    26    55 1   
    53    27    28 1   
    54    29    30 1   
    55    29    33 1   
    56    30    31 2   
    57    30    32 1   
    58    32    56 1   
    59    33    63 1   
    60    34    35 1   
    61    34    36 1   
    62    34    57 1   
    63    34    63 1   
    64    35    36 1   
    65    35    58 1   
    66    35    59 1   
    67    36    60 1   
    68    36    61 1   
    69    49    63 1   
    70    50    63 1   
@<TRIPOS>SUBSTRUCTURE
     1 6ST         1 TEMP              0 ****  ****    0 ROOT
