@<TRIPOS>MOLECULE
6SU
   26    26     1     0     0
SMALL
No Charge or Current Charge


@<TRIPOS>ATOM
      1 O3          -3.9460    -1.5790     0.5560 o          1 6SU      -0.524000
      2 C4           0.6560     2.1190    -0.5000 ca         1 6SU      -0.117000
      3 C5          -0.5360     1.4440    -0.1880 ca         1 6SU      -0.050000
      4 C6          -0.5030     0.1020     0.2430 ca         1 6SU       0.220000
      5 C7           0.7420    -0.5420     0.3660 ca         1 6SU      -0.090000
      6 C8          -3.2000    -0.3620    -1.6700 c3         1 6SU      -0.383100
      7 S           -3.2370    -0.3800     0.1100 s6         1 6SU       1.188100
      8 O2          -3.6220     0.9430     0.6060 o          1 6SU      -0.524000
      9 N           -1.6570    -0.6200     0.5680 nu         1 6SU      -0.873100
     10 C3           1.8930     1.4660    -0.3820 ca         1 6SU      -0.052000
     11 C2           1.9500     0.1230     0.0560 ca         1 6SU      -0.131600
     12 C1           3.2700    -0.6040     0.1970 c          1 6SU       0.606700
     13 O1           3.3510    -1.7670     0.5730 o          1 6SU      -0.490000
     14 O            4.3610     0.1600    -0.1350 os         1 6SU      -0.438100
     15 C            5.6670    -0.4400    -0.0350 c3         1 6SU       0.153900
     16 H2          -1.4750     1.9790    -0.2800 ha         1 6SU       0.148000
     17 H3           0.7690    -1.5750     0.7060 ha         1 6SU       0.134000
     18 H4          -4.2300    -0.2350    -2.0170 h1         1 6SU       0.104367
     19 H5          -2.5700     0.4750    -1.9850 h1         1 6SU       0.104367
     20 H6          -2.7850    -1.3190    -2.0010 h1         1 6SU       0.104367
     21 H7          -1.5720    -1.6080     0.7670 hn         1 6SU       0.490000
     22 H8           2.8010     2.0120    -0.6300 ha         1 6SU       0.136000
     23 H9           5.7480    -1.3140    -0.6940 h1         1 6SU       0.051033
     24 H10          6.4410     0.2800    -0.3300 h1         1 6SU       0.051033
     25 H11          5.8740    -0.7590     0.9940 h1         1 6SU       0.051033
     26 H1           0.6210     3.1540    -0.8330 ha         1 6SU       0.128000
@<TRIPOS>BOND
     1     1     7 2   
     2     2     3 ar  
     3     2    10 ar  
     4     2    26 1   
     5     3     4 ar  
     6     3    16 1   
     7     4     5 ar  
     8     4     9 1   
     9     5    11 ar  
    10     5    17 1   
    11     6     7 1   
    12     6    18 1   
    13     6    19 1   
    14     6    20 1   
    15     7     8 2   
    16     7     9 1   
    17     9    21 1   
    18    10    11 ar  
    19    10    22 1   
    20    11    12 1   
    21    12    13 2   
    22    12    14 1   
    23    14    15 1   
    24    15    23 1   
    25    15    24 1   
    26    15    25 1   
@<TRIPOS>SUBSTRUCTURE
     1 6SU         1 TEMP              0 ****  ****    0 ROOT
