@<TRIPOS>MOLECULE
6SU
   26    26     1     0     0
SMALL
abcg2


@<TRIPOS>ATOM
      1 O3          -4.1670    -0.9080     0.2760 o          1 6SU      -0.524000
      2 C4           0.6600     2.4530     0.2330 ca         1 6SU      -0.117000
      3 C5          -0.5500     1.8310     0.4950 ca         1 6SU      -0.050000
      4 C6          -0.6140     0.4420     0.5420 ca         1 6SU       0.220000
      5 C7           0.5340    -0.3120     0.3460 ca         1 6SU      -0.090000
      6 C8          -2.3990    -1.3000    -1.6360 c3         1 6SU      -0.383100
      7 S           -3.0310    -0.2530    -0.3470 s6         1 6SU       1.188100
      8 O2          -3.1710     1.0910    -0.8800 o          1 6SU      -0.524000
      9 N           -1.8470    -0.1970     0.8260 nu         1 6SU      -0.873100
     10 C3           1.8130     1.7060     0.0410 ca         1 6SU      -0.052000
     11 C2           1.7540     0.3160     0.1060 ca         1 6SU      -0.131600
     12 C1           2.9510    -0.5440    -0.0860 c          1 6SU       0.606700
     13 O1           2.9210    -1.7500    -0.0450 o          1 6SU      -0.490000
     14 O            4.0480     0.1560    -0.3090 os         1 6SU      -0.438100
     15 C            5.2640    -0.5650    -0.5160 c3         1 6SU       0.153900
     16 H2          -1.4360     2.4210     0.6780 ha         1 6SU       0.148000
     17 H3           0.4800    -1.3930     0.3840 ha         1 6SU       0.134000
     18 H4          -3.1490    -1.3500    -2.4230 h1         1 6SU       0.104367
     19 H5          -1.4790    -0.8740    -2.0330 h1         1 6SU       0.104367
     20 H6          -2.2140    -2.2930    -1.2330 h1         1 6SU       0.104367
     21 H7          -1.7630    -1.0830     1.3130 hn         1 6SU       0.490000
     22 H8           2.7470     2.2140    -0.1520 ha         1 6SU       0.136000
     23 H9           5.1980    -1.2100    -1.3910 h1         1 6SU       0.051033
     24 H10          6.0300     0.1870    -0.6790 h1         1 6SU       0.051033
     25 H11          5.5230    -1.1630     0.3570 h1         1 6SU       0.051033
     26 H1           0.7090     3.5330     0.1950 ha         1 6SU       0.128000
@<TRIPOS>BOND
     1     1     7 2   
     2     2     3 ar  
     3     2    10 ar  
     4     2    26 1   
     5     3     4 ar  
     6     3    16 1   
     7     4     5 ar  
     8     4     9 1   
     9     5    11 ar  
    10     5    17 1   
    11     6     7 1   
    12     6    18 1   
    13     6    19 1   
    14     6    20 1   
    15     7     8 2   
    16     7     9 1   
    17     9    21 1   
    18    10    11 ar  
    19    10    22 1   
    20    11    12 1   
    21    12    13 2   
    22    12    14 1   
    23    14    15 1   
    24    15    23 1   
    25    15    24 1   
    26    15    25 1   
@<TRIPOS>SUBSTRUCTURE
     1 6SU         1 TEMP              0 ****  ****    0 ROOT
