@<TRIPOS>MOLECULE
6SV
   38    39     1     0     0
SMALL
No Charge or Current Charge


@<TRIPOS>ATOM
      1 C1          -5.4510    -0.2160    -0.3800 c6         1 6SV      -0.077400
      2 C2          -4.8010    -1.3110     0.5020 c6         1 6SV      -0.070900
      3 C3          -3.2930    -1.4640     0.1800 c6         1 6SV      -0.092400
      4 C4          -2.5380    -0.1200     0.3440 c6         1 6SV       0.117700
      5 C5          -3.1900     0.9610    -0.5590 c6         1 6SV      -0.092400
      6 C6          -4.6980     1.1290    -0.2440 c6         1 6SV      -0.070900
      7 N1          -1.1220    -0.2930     0.0020 ns         1 6SV      -0.510900
      8 C7          -0.0980     0.4950     0.4500 c          1 6SV       0.644100
      9 O1          -0.2480     1.4330     1.2140 o          1 6SV      -0.646100
     10 N2           1.1150     0.1110    -0.0500 ns         1 6SV      -0.506900
     11 C8           2.3870     0.7760     0.2500 c3         1 6SV       0.101000
     12 C9           3.4550     0.6070    -0.8700 c5         1 6SV       0.149300
     13 C10          4.8780     1.0880    -0.5000 c5         1 6SV      -0.106400
     14 C11          5.4010    -0.0940     0.3710 c5         1 6SV      -0.114400
     15 C12          4.5580    -1.3110    -0.1220 c5         1 6SV       0.154600
     16 O2           3.6910    -0.7880    -1.1530 os         1 6SV      -0.455000
     17 H1          -5.4470    -0.5380    -1.4310 hc         1 6SV       0.038700
     18 H2          -6.5040    -0.0850    -0.0970 hc         1 6SV       0.038700
     19 H3          -4.9290    -1.0560     1.5630 hc         1 6SV       0.042450
     20 H4          -5.3150    -2.2690     0.3460 hc         1 6SV       0.042450
     21 H5          -2.8520    -2.2210     0.8430 hc         1 6SV       0.043200
     22 H6          -3.1730    -1.8400    -0.8460 hc         1 6SV       0.043200
     23 H7          -2.6090     0.2000     1.3960 h1         1 6SV       0.082700
     24 H8          -2.6780     1.9230    -0.4210 hc         1 6SV       0.043200
     25 H9          -3.0630     0.6910    -1.6170 hc         1 6SV       0.043200
     26 H10         -5.1400     1.8740    -0.9200 hc         1 6SV       0.042450
     27 H11         -4.8210     1.5220     0.7750 hc         1 6SV       0.042450
     28 H12         -0.8760    -1.0450    -0.6270 hn         1 6SV       0.293500
     29 H13          1.1330    -0.6850    -0.6740 hn         1 6SV       0.301500
     30 H14          2.2060     1.8490     0.3910 h1         1 6SV       0.053200
     31 H15          2.7680     0.3780     1.1990 h1         1 6SV       0.053200
     32 H16          3.0850     1.1010    -1.7790 h1         1 6SV       0.050700
     33 H17          5.4880     1.2170    -1.4010 hc         1 6SV       0.056700
     34 H18          4.8790     2.0450     0.0350 hc         1 6SV       0.056700
     35 H19          6.4770    -0.2570     0.2380 hc         1 6SV       0.058200
     36 H20          5.2340     0.0860     1.4390 hc         1 6SV       0.058200
     37 H21          5.1790    -2.1140    -0.5420 h1         1 6SV       0.045200
     38 H22          3.9450    -1.7300     0.6870 h1         1 6SV       0.045200
@<TRIPOS>BOND
     1     1     2 1   
     2     1     6 1   
     3     1    17 1   
     4     1    18 1   
     5     2     3 1   
     6     2    19 1   
     7     2    20 1   
     8     3     4 1   
     9     3    21 1   
    10     3    22 1   
    11     4     5 1   
    12     4     7 1   
    13     4    23 1   
    14     5     6 1   
    15     5    24 1   
    16     5    25 1   
    17     6    26 1   
    18     6    27 1   
    19     7     8 1   
    20     7    28 1   
    21     8     9 2   
    22     8    10 1   
    23    10    11 1   
    24    10    29 1   
    25    11    12 1   
    26    11    30 1   
    27    11    31 1   
    28    12    13 1   
    29    12    16 1   
    30    12    32 1   
    31    13    14 1   
    32    13    33 1   
    33    13    34 1   
    34    14    15 1   
    35    14    35 1   
    36    14    36 1   
    37    15    16 1   
    38    15    37 1   
    39    15    38 1   
@<TRIPOS>SUBSTRUCTURE
     1 6SV         1 TEMP              0 ****  ****    0 ROOT
