@<TRIPOS>MOLECULE
6SV
   38    39     1     0     0
SMALL
bcc


@<TRIPOS>ATOM
      1 C1          -5.4250    -0.0020    -0.2340 c6         1 6SV      -0.077400
      2 C2          -4.8410    -1.2530     0.4130 c6         1 6SV      -0.070900
      3 C3          -3.3970    -1.4880    -0.0200 c6         1 6SV      -0.092400
      4 C4          -2.5240    -0.2680     0.2620 c6         1 6SV       0.117700
      5 C5          -3.1160     0.9860    -0.3850 c6         1 6SV      -0.092400
      6 C6          -4.5590     1.2180     0.0540 c6         1 6SV      -0.070900
      7 N1          -1.1700    -0.5290    -0.1870 ns         1 6SV      -0.577900
      8 C7          -0.1050     0.1820     0.2790 c          1 6SV       0.778100
      9 O1          -0.1640     0.8830     1.2850 o          1 6SV      -0.646100
     10 N2           1.0460     0.0140    -0.4260 ns         1 6SV      -0.573900
     11 C8           2.2250     0.7980    -0.1490 c3         1 6SV       0.101000
     12 C9           3.4460     0.2080    -0.8380 c5         1 6SV       0.126100
     13 C10          4.7220     0.9820    -0.4990 c5         1 6SV      -0.106400
     14 C11          5.2940     0.1820     0.6660 c5         1 6SV      -0.114400
     15 C12          4.9090    -1.2340     0.2740 c5         1 6SV       0.131400
     16 O2           3.6640    -1.1280    -0.4010 os         1 6SV      -0.408600
     17 H1          -5.4910    -0.1520    -1.3170 hc         1 6SV       0.038700
     18 H2          -6.4460     0.1640     0.1180 hc         1 6SV       0.038700
     19 H3          -4.8800    -1.1470     1.5030 hc         1 6SV       0.042450
     20 H4          -5.4460    -2.1280     0.1670 hc         1 6SV       0.042450
     21 H5          -2.9830    -2.3620     0.4880 hc         1 6SV       0.043200
     22 H6          -3.3740    -1.7060    -1.0950 hc         1 6SV       0.043200
     23 H7          -2.4900    -0.1180     1.3450 h1         1 6SV       0.082700
     24 H8          -2.4980     1.8520    -0.1360 hc         1 6SV       0.043200
     25 H9          -3.0770     0.8700    -1.4740 hc         1 6SV       0.043200
     26 H10         -4.9620     2.1010    -0.4460 hc         1 6SV       0.042450
     27 H11         -4.5820     1.4340     1.1280 hc         1 6SV       0.042450
     28 H12         -1.0860    -0.9700    -1.0910 hn         1 6SV       0.293500
     29 H13          0.9850    -0.4030    -1.3420 hn         1 6SV       0.301500
     30 H14          2.1090     1.8340    -0.4900 h1         1 6SV       0.053200
     31 H15          2.3900     0.8340     0.9300 h1         1 6SV       0.053200
     32 H16          3.2710     0.1990    -1.9210 h1         1 6SV       0.050700
     33 H17          5.4110     0.9660    -1.3450 hc         1 6SV       0.056700
     34 H18          4.5250     2.0260    -0.2540 hc         1 6SV       0.056700
     35 H19          6.3700     0.3050     0.7820 hc         1 6SV       0.058200
     36 H20          4.8220     0.4700     1.6080 hc         1 6SV       0.058200
     37 H21          5.6670    -1.6690    -0.3900 h1         1 6SV       0.045200
     38 H22          4.7940    -1.9020     1.1300 h1         1 6SV       0.045200
@<TRIPOS>BOND
     1     1     2 1   
     2     1     6 1   
     3     1    17 1   
     4     1    18 1   
     5     2     3 1   
     6     2    19 1   
     7     2    20 1   
     8     3     4 1   
     9     3    21 1   
    10     3    22 1   
    11     4     5 1   
    12     4     7 1   
    13     4    23 1   
    14     5     6 1   
    15     5    24 1   
    16     5    25 1   
    17     6    26 1   
    18     6    27 1   
    19     7     8 1   
    20     7    28 1   
    21     8     9 2   
    22     8    10 1   
    23    10    11 1   
    24    10    29 1   
    25    11    12 1   
    26    11    30 1   
    27    11    31 1   
    28    12    13 1   
    29    12    16 1   
    30    12    32 1   
    31    13    14 1   
    32    13    33 1   
    33    13    34 1   
    34    14    15 1   
    35    14    35 1   
    36    14    36 1   
    37    15    16 1   
    38    15    37 1   
    39    15    38 1   
@<TRIPOS>SUBSTRUCTURE
     1 6SV         1 TEMP              0 ****  ****    0 ROOT
