@<TRIPOS>MOLECULE
6SW
   33    36     1     0     0
SMALL
No Charge or Current Charge


@<TRIPOS>ATOM
      1 P           -4.0980    -0.7230    -0.3710 p5         1 6SW       1.355200
      2 C8           4.6820     0.7890     1.4320 cc         1 6SW       0.515800
      3 C5           1.6300    -0.6840    -1.4300 cc         1 6SW       0.423400
      4 C6           3.6780    -0.5340    -0.7400 cd         1 6SW       0.141500
      5 O6          -5.4800     0.0420    -0.2990 oh         1 6SW      -0.722400
      6 N1           2.8770    -1.0830    -1.7400 nd         1 6SW      -0.597000
      7 C2          -1.7210     0.0990    -0.4060 c5         1 6SW       0.153300
      8 N3           5.5270     0.0860     0.5860 ns         1 6SW      -0.429400
      9 C4           0.4490     0.7110     0.3450 c5         1 6SW       0.271300
     10 O4          -4.0410    -1.9200    -1.2490 o          1 6SW      -0.561000
     11 O5          -3.8540    -0.9470     1.2060 os         1 6SW      -0.591400
     12 C           -2.4970    -1.2070     1.6470 c6         1 6SW       0.217600
     13 O3          -3.0840     0.4950    -0.6870 os         1 6SW      -0.531400
     14 C3          -0.6960     1.2440    -0.6250 c5         1 6SW       0.151300
     15 O2          -1.2330     2.5140    -0.2060 oh         1 6SW      -0.685000
     16 O           -0.1770    -0.2630     1.2420 os         1 6SW      -0.428000
     17 C1          -1.5950    -0.0720     1.1160 c5         1 6SW       0.068300
     18 N            1.6240     0.0880    -0.2720 na         1 6SW      -0.190500
     19 C7           2.9050     0.1970     0.1730 cd         1 6SW       0.077400
     20 N2           3.3510     0.8920     1.2880 nd         1 6SW      -0.633100
     21 C9           5.1440    -0.6120    -0.5300 c          1 6SW       0.502500
     22 O1           5.9440    -1.2100    -1.2370 o          1 6SW      -0.498000
     23 H2           0.7280    -0.9200    -1.9830 h5         1 6SW       0.070100
     24 H3          -5.2290     0.5130     0.5150 ho         1 6SW       0.493000
     25 H4          -1.4520    -0.8120    -0.9630 h1         1 6SW       0.072700
     26 H5           6.5150     0.0790     0.7950 hn         1 6SW       0.333500
     27 H6           0.8330     1.5560     0.9310 h2         1 6SW       0.108700
     28 H7          -2.4700    -1.2340     2.7460 h1         1 6SW       0.075200
     29 H8          -2.1620    -2.1840     1.2660 h1         1 6SW       0.075200
     30 H9          -0.3620     1.2920    -1.6710 h1         1 6SW       0.085700
     31 H10         -2.1820     2.5010    -0.4810 ho         1 6SW       0.520000
     32 H11         -1.8760     0.8470     1.6520 h1         1 6SW       0.103700
     33 H1           5.2160     1.2630     2.2470 h5         1 6SW       0.052800
@<TRIPOS>BOND
     1     1     5 1   
     2     1    10 2   
     3     1    11 1   
     4     1    13 1   
     5     2     8 1   
     6     2    20 2   
     7     2    33 1   
     8     3     6 2   
     9     3    18 1   
    10     3    23 1   
    11     4     6 1   
    12     4    19 2   
    13     4    21 1   
    14     5    24 1   
    15     7    13 1   
    16     7    14 1   
    17     7    17 1   
    18     7    25 1   
    19     8    21 1   
    20     8    26 1   
    21     9    14 1   
    22     9    16 1   
    23     9    18 1   
    24     9    27 1   
    25    11    12 1   
    26    12    17 1   
    27    12    28 1   
    28    12    29 1   
    29    14    15 1   
    30    14    30 1   
    31    15    31 1   
    32    16    17 1   
    33    17    32 1   
    34    18    19 1   
    35    19    20 1   
    36    21    22 2   
@<TRIPOS>SUBSTRUCTURE
     1 6SW         1 TEMP              0 ****  ****    0 ROOT
