@<TRIPOS>MOLECULE
6SW
   33    36     1     0     0
SMALL
abcg2


@<TRIPOS>ATOM
      1 P           -3.7450    -0.2290    -0.9360 p5         1 6SW       1.355200
      2 C8           4.2710     1.6690     0.0270 cc         1 6SW       0.515800
      3 C5           1.5320    -1.6850     0.1230 cc         1 6SW       0.423400
      4 C6           3.3840    -0.8320    -0.4320 cd         1 6SW       0.141500
      5 O6          -5.0800     0.6070    -0.7910 oh         1 6SW      -0.722400
      6 N1           2.6420    -1.9760    -0.4910 nd         1 6SW      -0.597000
      7 C2          -1.4470     0.3060    -0.0490 c5         1 6SW       0.153300
      8 N3           5.0370     0.7770    -0.6410 ns         1 6SW      -0.429400
      9 C4           0.4450     0.2980     1.2990 c5         1 6SW       0.271300
     10 O4          -3.5250    -0.9610    -2.1960 o          1 6SW      -0.561000
     11 O5          -3.7980    -1.1370     0.3880 os         1 6SW      -0.591400
     12 C           -2.5960    -1.6170     1.0170 c6         1 6SW       0.217600
     13 O3          -2.6150     0.8800    -0.5980 os         1 6SW      -0.531400
     14 C3          -0.3430     1.2580     0.3630 c5         1 6SW       0.151300
     15 O2          -0.9040     2.3230     1.0650 oh         1 6SW      -0.685000
     16 O           -0.4600    -0.6620     1.7860 os         1 6SW      -0.428000
     17 C1          -1.7460    -0.3910     1.2680 c5         1 6SW       0.068300
     18 N            1.5050    -0.3980     0.5890 na         1 6SW      -0.190500
     19 C7           2.6930     0.1590     0.2360 cd         1 6SW       0.077400
     20 N2           3.0890     1.4220     0.4900 nd         1 6SW      -0.633100
     21 C9           4.6910    -0.5450    -0.9410 c          1 6SW       0.502500
     22 O1           5.4470    -1.2780    -1.5520 o          1 6SW      -0.498000
     23 H2           0.7120    -2.3690     0.2720 h5         1 6SW       0.070100
     24 H3          -5.6220     0.6230    -1.5920 ho         1 6SW       0.493000
     25 H4          -1.0110    -0.4140    -0.7560 h1         1 6SW       0.072700
     26 H5           5.9450     1.0920    -0.9600 hn         1 6SW       0.333500
     27 H6           0.9040     0.8480     2.1250 h2         1 6SW       0.108700
     28 H7          -2.9040    -2.1180     1.9330 h1         1 6SW       0.075200
     29 H8          -2.0850    -2.3390     0.3740 h1         1 6SW       0.075200
     30 H9           0.2760     1.5880    -0.4770 h1         1 6SW       0.085700
     31 H10         -0.2170     2.9710     1.2540 ho         1 6SW       0.520000
     32 H11         -2.2940     0.2850     1.9360 h1         1 6SW       0.103700
     33 H1           4.7100     2.6480     0.1630 h5         1 6SW       0.052800
@<TRIPOS>BOND
     1     1     5 1   
     2     1    10 2   
     3     1    11 1   
     4     1    13 1   
     5     2     8 1   
     6     2    20 2   
     7     2    33 1   
     8     3     6 2   
     9     3    18 1   
    10     3    23 1   
    11     4     6 1   
    12     4    19 2   
    13     4    21 1   
    14     5    24 1   
    15     7    13 1   
    16     7    14 1   
    17     7    17 1   
    18     7    25 1   
    19     8    21 1   
    20     8    26 1   
    21     9    14 1   
    22     9    16 1   
    23     9    18 1   
    24     9    27 1   
    25    11    12 1   
    26    12    17 1   
    27    12    28 1   
    28    12    29 1   
    29    14    15 1   
    30    14    30 1   
    31    15    31 1   
    32    16    17 1   
    33    17    32 1   
    34    18    19 1   
    35    19    20 1   
    36    21    22 2   
@<TRIPOS>SUBSTRUCTURE
     1 6SW         1 TEMP              0 ****  ****    0 ROOT
