@<TRIPOS>MOLECULE
6SX
   32    35     1     0     0
SMALL
No Charge or Current Charge


@<TRIPOS>ATOM
      1 N1          -5.4350    -0.7520    -0.9820 nb         1 6SX      -0.193000
      2 C2          -4.6330    -1.5830    -0.2730 ca         1 6SX       0.135900
      3 C4          -2.9870    -0.0220     0.0470 ca         1 6SX       0.089500
      4 C5          -3.7260     0.8950    -0.6580 ca         1 6SX      -0.021600
      5 C6          -4.9760     0.5050    -1.1780 ca         1 6SX       0.178900
      6 P            3.4900     0.0010    -1.0920 p5         1 6SX       1.356200
      7 O1P          4.7720    -0.9260    -1.0330 oh         1 6SX      -0.722400
      8 O2P          3.2250     0.6900    -2.3810 o          1 6SX      -0.561000
      9 O3           2.3610    -1.0080    -0.5310 os         1 6SX      -0.530400
     10 C3           1.1810    -0.2760    -0.1210 c5         1 6SX       0.153300
     11 C9           1.5470     0.5810     1.1000 c5         1 6SX       0.067300
     12 C10          2.6450     1.6210     0.7820 c6         1 6SX       0.219600
     13 O5           3.7750     0.9250     0.1980 os         1 6SX      -0.593400
     14 C7           0.0630    -1.1470     0.5190 c5         1 6SX       0.151300
     15 O2           0.5590    -2.1100     1.4800 oh         1 6SX      -0.685000
     16 C1          -0.7230     0.0480     1.2150 c5         1 6SX       0.276300
     17 O4           0.2570     1.1100     1.4590 os         1 6SX      -0.430000
     18 N9          -1.8290     0.6010     0.4330 na         1 6SX      -0.316300
     19 N7          -3.1000     2.1240    -0.7530 nc         1 6SX      -0.541100
     20 C8          -1.9560     1.9100    -0.0740 cd         1 6SX       0.443700
     21 N3          -3.4230    -1.2810     0.2560 nb         1 6SX      -0.188000
     22 H1          -4.9980    -2.5950    -0.1130 h5         1 6SX       0.054100
     23 H2          -5.6060     1.1890    -1.7440 h4         1 6SX       0.044100
     24 H3           4.6920    -1.0660    -0.0730 ho         1 6SX       0.493000
     25 H4           0.7940     0.3270    -0.9580 h1         1 6SX       0.070700
     26 H5           1.9180    -0.0390     1.9290 h1         1 6SX       0.104700
     27 H6           2.2710     2.3790     0.0780 h1         1 6SX       0.074200
     28 H7           2.9660     2.1300     1.7020 h1         1 6SX       0.074200
     29 H8          -0.5460    -1.6380    -0.2550 h1         1 6SX       0.087700
     30 H9          -0.0870    -2.8540     1.5140 ho         1 6SX       0.522000
     31 H10         -1.1620    -0.2890     2.1630 h2         1 6SX       0.108700
     32 H11         -1.1800     2.6500     0.0830 h5         1 6SX       0.076800
@<TRIPOS>BOND
     1     1     2 ar  
     2     1     5 ar  
     3     2    21 ar  
     4     2    22 1   
     5     3     4 ar  
     6     3    18 1   
     7     3    21 ar  
     8     4     5 ar  
     9     4    19 1   
    10     5    23 1   
    11     6     7 1   
    12     6     8 2   
    13     6     9 1   
    14     6    13 1   
    15     7    24 1   
    16     9    10 1   
    17    10    11 1   
    18    10    14 1   
    19    10    25 1   
    20    11    12 1   
    21    11    17 1   
    22    11    26 1   
    23    12    13 1   
    24    12    27 1   
    25    12    28 1   
    26    14    15 1   
    27    14    16 1   
    28    14    29 1   
    29    15    30 1   
    30    16    17 1   
    31    16    18 1   
    32    16    31 1   
    33    18    20 1   
    34    19    20 2   
    35    20    32 1   
@<TRIPOS>SUBSTRUCTURE
     1 6SX         1 TEMP              0 ****  ****    0 ROOT
