@<TRIPOS>MOLECULE
6SX
   32    35     1     0     0
SMALL
abcg2


@<TRIPOS>ATOM
      1 N1          -5.3520    -0.6050    -0.9580 nb         1 6SX      -0.193000
      2 C2          -4.6330    -1.4500    -0.2190 ca         1 6SX       0.135900
      3 C4          -2.9700    -0.0310     0.0430 ca         1 6SX       0.089500
      4 C5          -3.6150     0.9520    -0.7160 ca         1 6SX      -0.021600
      5 C6          -4.8580     0.6000    -1.2170 ca         1 6SX       0.178900
      6 P            3.5050     0.0920    -0.8700 p5         1 6SX       1.356200
      7 O1P          4.8100    -0.7600    -0.6000 oh         1 6SX      -0.722400
      8 O2P          3.3560     0.7140    -2.1970 o          1 6SX      -0.561000
      9 O3           2.3370    -0.9600    -0.4830 os         1 6SX      -0.530400
     10 C3           1.1630    -0.3140    -0.0320 c5         1 6SX       0.153300
     11 C9           1.4320     0.4790     1.2350 c5         1 6SX       0.067300
     12 C10          2.3210     1.6640     0.9230 c6         1 6SX       0.219600
     13 O5           3.5290     1.1130     0.3690 os         1 6SX      -0.593400
     14 C7           0.0190    -1.2020     0.4100 c5         1 6SX       0.151300
     15 O2           0.5210    -2.2160     1.2210 oh         1 6SX      -0.685000
     16 C1          -0.7770    -0.1490     1.2310 c5         1 6SX       0.276300
     17 O4           0.1360     0.8190     1.6830 os         1 6SX      -0.430000
     18 N9          -1.7830     0.5200     0.4220 na         1 6SX      -0.316300
     19 N7          -2.8360     2.0770    -0.7920 nc         1 6SX      -0.541100
     20 C8          -1.7690     1.7820    -0.1110 cd         1 6SX       0.443700
     21 N3          -3.4370    -1.2350     0.3110 nb         1 6SX      -0.188000
     22 H1          -5.0740    -2.4220    -0.0340 h5         1 6SX       0.054100
     23 H2          -5.4530     1.2750    -1.8220 h4         1 6SX       0.044100
     24 H3           5.3920    -0.8360    -1.3690 ho         1 6SX       0.493000
     25 H4           0.7780     0.3560    -0.8140 h1         1 6SX       0.070700
     26 H5           1.9380    -0.1540     1.9750 h1         1 6SX       0.104700
     27 H6           1.8470     2.3500     0.2160 h1         1 6SX       0.074200
     28 H7           2.6140     2.2210     1.8110 h1         1 6SX       0.074200
     29 H8          -0.5760    -1.5860    -0.4260 h1         1 6SX       0.087700
     30 H9          -0.1880    -2.8320     1.4320 ho         1 6SX       0.522000
     31 H10         -1.2920    -0.6180     2.0740 h2         1 6SX       0.108700
     32 H11         -0.9390     2.4540     0.0430 h5         1 6SX       0.076800
@<TRIPOS>BOND
     1     1     2 ar  
     2     1     5 ar  
     3     2    21 ar  
     4     2    22 1   
     5     3     4 ar  
     6     3    18 1   
     7     3    21 ar  
     8     4     5 ar  
     9     4    19 1   
    10     5    23 1   
    11     6     7 1   
    12     6     8 2   
    13     6     9 1   
    14     6    13 1   
    15     7    24 1   
    16     9    10 1   
    17    10    11 1   
    18    10    14 1   
    19    10    25 1   
    20    11    12 1   
    21    11    17 1   
    22    11    26 1   
    23    12    13 1   
    24    12    27 1   
    25    12    28 1   
    26    14    15 1   
    27    14    16 1   
    28    14    29 1   
    29    15    30 1   
    30    16    17 1   
    31    16    18 1   
    32    16    31 1   
    33    18    20 1   
    34    19    20 2   
    35    20    32 1   
@<TRIPOS>SUBSTRUCTURE
     1 6SX         1 TEMP              0 ****  ****    0 ROOT
