@<TRIPOS>MOLECULE
6SY
   31    33     1     0     0
SMALL
No Charge or Current Charge


@<TRIPOS>ATOM
      1 N1           3.6460     1.3090     0.4660 ns         1 6SY      -0.468500
      2 C2           3.3590    -1.2520    -0.4320 cc         1 6SY       0.001600
      3 C4          -1.1830    -0.1280    -1.2250 c5         1 6SY       0.070300
      4 C5          -2.2120     0.9860    -1.5210 c6         1 6SY       0.225600
      5 C6          -0.9900    -0.3410     0.2880 c5         1 6SY       0.155300
      6 O2          -3.4420     0.6570    -0.8250 os         1 6SY      -0.596400
      7 P           -3.3530     0.3780     0.7590 p5         1 6SY       1.357200
      8 O7           1.4820     1.7440     0.1570 o          1 6SY      -0.553000
      9 C8           2.3980     0.9450     0.0620 c          1 6SY       0.624000
     10 C            4.7800     0.5650     0.4850 c          1 6SY       0.589200
     11 O            5.8470     1.0060     0.8730 o          1 6SY      -0.512000
     12 N            2.2650    -0.3820    -0.4170 n          1 6SY      -0.317000
     13 C1           4.5840    -0.8020     0.0020 cd         1 6SY      -0.365200
     14 C3           0.9640    -0.8910    -0.9470 c5         1 6SY       0.291700
     15 C7           0.1060    -1.4410     0.2750 c5         1 6SY       0.155300
     16 O6          -0.4690    -2.7360     0.0120 oh         1 6SY      -0.682000
     17 O1           0.1690     0.1180    -1.6370 os         1 6SY      -0.426000
     18 O5          -2.2540    -0.8060     0.8210 os         1 6SY      -0.537400
     19 H1           3.7350     2.2540     0.8030 hn         1 6SY       0.346500
     20 H2           3.1390    -2.2500    -0.8050 h4         1 6SY       0.207000
     21 H3          -1.5400    -1.0440    -1.7180 h1         1 6SY       0.085700
     22 H4          -1.8380     1.9620    -1.1770 h1         1 6SY       0.077700
     23 H5          -2.4070     1.0480    -2.6000 h1         1 6SY       0.077700
     24 H6          -0.6540     0.5680     0.8090 h1         1 6SY       0.102700
     25 H7          -4.5980    -0.8700     0.0670 ho         1 6SY       0.491000
     26 H8           5.4680    -1.4290     0.0080 ha         1 6SY       0.228000
     27 H9           1.2000    -1.7080    -1.6410 h2         1 6SY       0.067700
     28 H10          0.6760    -1.4490     1.2140 h1         1 6SY       0.082700
     29 H11         -1.3620    -2.7100     0.4330 ho         1 6SY       0.508000
     30 O3          -3.1620     1.5510     1.6510 o          1 6SY      -0.562000
     31 O4          -4.6930    -0.4420     0.9360 oh         1 6SY      -0.725400
@<TRIPOS>BOND
     1     1     9 1   
     2     1    10 1   
     3     1    19 1   
     4     2    12 1   
     5     2    13 2   
     6     2    20 1   
     7     3     4 1   
     8     3     5 1   
     9     3    17 1   
    10     3    21 1   
    11     4     6 1   
    12     4    22 1   
    13     4    23 1   
    14     5    15 1   
    15     5    18 1   
    16     5    24 1   
    17     6     7 1   
    18     7    18 1   
    19     7    30 2   
    20     7    31 1   
    21     8     9 2   
    22     9    12 1   
    23    10    11 2   
    24    10    13 1   
    25    12    14 1   
    26    13    26 1   
    27    14    15 1   
    28    14    17 1   
    29    14    27 1   
    30    15    16 1   
    31    15    28 1   
    32    16    29 1   
    33    25    31 1   
@<TRIPOS>SUBSTRUCTURE
     1 6SY         1 TEMP              0 ****  ****    0 ROOT
