@<TRIPOS>MOLECULE
6SY
   31    33     1     0     0
SMALL
abcg2


@<TRIPOS>ATOM
      1 N1           3.6770     1.0980     0.6980 ns         1 6SY      -0.468500
      2 C2           3.3520    -1.1410    -0.6970 cc         1 6SY       0.001600
      3 C4          -1.0730    -0.2160    -1.2210 c5         1 6SY       0.070300
      4 C5          -1.8930     0.9350    -1.7620 c6         1 6SY       0.225600
      5 C6          -1.1630    -0.2480     0.2960 c5         1 6SY       0.155300
      6 O2          -3.2410     0.7080    -1.3120 os         1 6SY      -0.596400
      7 P           -3.5860     0.4450     0.2340 p5         1 6SY       1.357200
      8 O7           1.4380     1.3130     0.9310 o          1 6SY      -0.553000
      9 C8           2.3860     0.6930     0.5010 c          1 6SY       0.624000
     10 C            4.8440     0.4840     0.2650 c          1 6SY       0.589200
     11 O            5.9290     0.9670     0.5230 o          1 6SY      -0.512000
     12 N            2.2510    -0.4810    -0.2180 n          1 6SY      -0.317000
     13 C1           4.6090    -0.7250    -0.4860 cd         1 6SY      -0.365200
     14 C3           0.9330    -0.9850    -0.5330 c5         1 6SY       0.291700
     15 C7          -0.0530    -1.2190     0.6640 c5         1 6SY       0.155300
     16 O6          -0.5640    -2.5190     0.6420 oh         1 6SY      -0.682000
     17 O1           0.3090    -0.1070    -1.4480 os         1 6SY      -0.426000
     18 O5          -2.4690    -0.6200     0.7110 os         1 6SY      -0.537400
     19 H1           3.7820     1.9530     1.2310 hn         1 6SY       0.346500
     20 H2           3.1440    -2.0370    -1.2630 h4         1 6SY       0.207000
     21 H3          -1.4680    -1.1540    -1.6390 h1         1 6SY       0.085700
     22 H4          -1.5210     1.8970    -1.3990 h1         1 6SY       0.077700
     23 H5          -1.9290     0.9600    -2.8490 h1         1 6SY       0.077700
     24 H6          -0.9020     0.7360     0.6980 h1         1 6SY       0.102700
     25 H7          -5.6130    -0.1720     0.6670 ho         1 6SY       0.491000
     26 H8           5.4450    -1.2850    -0.8770 ha         1 6SY       0.228000
     27 H9           1.0950    -1.9590    -1.0040 h2         1 6SY       0.067700
     28 H10          0.4080    -0.9820     1.6250 h1         1 6SY       0.082700
     29 H11          0.0960    -3.1170     1.0080 ho         1 6SY       0.508000
     30 O3          -3.6870     1.6530     1.0730 o          1 6SY      -0.562000
     31 O4          -4.8760    -0.4650     0.1140 oh         1 6SY      -0.725400
@<TRIPOS>BOND
     1     1     9 1   
     2     1    10 1   
     3     1    19 1   
     4     2    12 1   
     5     2    13 2   
     6     2    20 1   
     7     3     4 1   
     8     3     5 1   
     9     3    17 1   
    10     3    21 1   
    11     4     6 1   
    12     4    22 1   
    13     4    23 1   
    14     5    15 1   
    15     5    18 1   
    16     5    24 1   
    17     6     7 1   
    18     7    18 1   
    19     7    30 2   
    20     7    31 1   
    21     8     9 2   
    22     9    12 1   
    23    10    11 2   
    24    10    13 1   
    25    12    14 1   
    26    13    26 1   
    27    14    15 1   
    28    14    17 1   
    29    14    27 1   
    30    15    16 1   
    31    15    28 1   
    32    16    29 1   
    33    25    31 1   
@<TRIPOS>SUBSTRUCTURE
     1 6SY         1 TEMP              0 ****  ****    0 ROOT
