@<TRIPOS>MOLECULE
6SZ
   34    37     1     0     0
SMALL
No Charge or Current Charge


@<TRIPOS>ATOM
      1 N1          -5.2480    -0.2570    -0.9230 nb         1 6SZ      -0.255000
      2 N2          -5.0490    -2.3480    -0.0050 nv         1 6SZ      -1.052900
      3 C6          -4.6980     0.9600    -1.1310 ca         1 6SZ       0.223900
      4 C2          -4.5030    -1.1270    -0.2160 ca         1 6SZ       0.393900
      5 N3          -3.2780    -0.9280     0.3030 nb         1 6SZ      -0.273000
      6 C4          -2.7480     0.2910     0.0840 ca         1 6SZ       0.143500
      7 C5          -3.4180     1.2580    -0.6230 ca         1 6SZ      -0.081600
      8 N7          -2.6980     2.4340    -0.7290 nc         1 6SZ      -0.528100
      9 C8          -1.5700     2.1350    -0.0560 cd         1 6SZ       0.424700
     10 N9          -1.5440     0.8240     0.4600 na         1 6SZ      -0.324300
     11 C1          -0.4800     0.1890     1.2370 c5         1 6SZ       0.278300
     12 O4           0.5710     1.1780     1.4920 os         1 6SZ      -0.429000
     13 C7           0.2220    -1.0510     0.5290 c5         1 6SZ       0.149300
     14 O2           0.6540    -2.0540     1.4810 oh         1 6SZ      -0.686000
     15 C3           1.3960    -0.2510    -0.1060 c5         1 6SZ       0.152300
     16 O3           2.5230    -1.0570    -0.5270 os         1 6SZ      -0.532400
     17 PA           3.7150    -0.1200    -1.0810 p5         1 6SZ       1.356200
     18 O2A          3.4930     0.5980    -2.3630 o          1 6SZ      -0.562000
     19 O1A          4.9320    -1.1320    -1.0360 oh         1 6SZ      -0.722400
     20 C9           1.8210     0.5680     1.1230 c5         1 6SZ       0.068300
     21 C10          2.9850     1.5340     0.8110 c6         1 6SZ       0.218600
     22 O5           4.0640     0.7710     0.2160 os         1 6SZ      -0.593400
     23 H1          -5.8620    -2.6180    -0.5540 hn         1 6SZ       0.494500
     24 H2          -4.4500    -3.1000     0.3290 hn         1 6SZ       0.494500
     25 H3          -5.2790     1.6850    -1.6990 h4         1 6SZ       0.041100
     26 H4          -0.7370     2.8130     0.0910 h5         1 6SZ       0.073800
     27 H5          -0.9430    -0.1250     2.1810 h2         1 6SZ       0.107700
     28 H6          -0.4200    -1.4930    -0.2470 h1         1 6SZ       0.085700
     29 H7          -0.0620    -2.7280     1.5440 ho         1 6SZ       0.519000
     30 H8           1.0480     0.3850    -0.9360 h1         1 6SZ       0.071700
     31 H9           4.8410    -1.2810    -0.0780 ho         1 6SZ       0.493000
     32 H10          2.1520    -0.0840     1.9440 h1         1 6SZ       0.103700
     33 H11          2.6610     2.3230     0.1150 h1         1 6SZ       0.073700
     34 H12          3.3420     2.0120     1.7350 h1         1 6SZ       0.073700
@<TRIPOS>BOND
     1     1     3 ar  
     2     1     4 ar  
     3     2     4 1   
     4     2    23 1   
     5     2    24 1   
     6     3     7 ar  
     7     3    25 1   
     8     4     5 ar  
     9     5     6 ar  
    10     6     7 ar  
    11     6    10 1   
    12     7     8 1   
    13     8     9 2   
    14     9    10 1   
    15     9    26 1   
    16    10    11 1   
    17    11    12 1   
    18    11    13 1   
    19    11    27 1   
    20    12    20 1   
    21    13    14 1   
    22    13    15 1   
    23    13    28 1   
    24    14    29 1   
    25    15    16 1   
    26    15    20 1   
    27    15    30 1   
    28    16    17 1   
    29    17    18 2   
    30    17    19 1   
    31    17    22 1   
    32    19    31 1   
    33    20    21 1   
    34    20    32 1   
    35    21    22 1   
    36    21    33 1   
    37    21    34 1   
@<TRIPOS>SUBSTRUCTURE
     1 6SZ         1 TEMP              0 ****  ****    0 ROOT
