@<TRIPOS>MOLECULE
6SZ
   34    37     1     0     0
SMALL
abcg2


@<TRIPOS>ATOM
      1 N1          -5.1420    -0.1340    -0.9470 nb         1 6SZ      -0.255000
      2 N2          -5.1620    -2.1940     0.0570 nv         1 6SZ      -1.052900
      3 C6          -4.5500     1.0210    -1.1960 ca         1 6SZ       0.223900
      4 C2          -4.4940    -1.0500    -0.2000 ca         1 6SZ       0.393900
      5 N3          -3.2730    -0.9180     0.3290 nb         1 6SZ      -0.273000
      6 C4          -2.7230     0.2490     0.0600 ca         1 6SZ       0.143500
      7 C5          -3.2850     1.2820    -0.6930 ca         1 6SZ      -0.081600
      8 N7          -2.4170     2.3460    -0.7660 nc         1 6SZ      -0.528100
      9 C8          -1.3790     1.9690    -0.0880 cd         1 6SZ       0.424700
     10 N9          -1.4980     0.7040     0.4420 na         1 6SZ      -0.324300
     11 C1          -0.5450    -0.0480     1.2370 c5         1 6SZ       0.278300
     12 O4           0.4220     0.8490     1.7290 os         1 6SZ      -0.429000
     13 C7           0.1970    -1.1210     0.3940 c5         1 6SZ       0.149300
     14 O2           0.6400    -2.1820     1.1810 oh         1 6SZ      -0.686000
     15 C3           1.3920    -0.2870    -0.0180 c5         1 6SZ       0.152300
     16 O3           2.5310    -0.9840    -0.4840 os         1 6SZ      -0.532400
     17 PA           3.7510     0.0180    -0.8430 p5         1 6SZ       1.356200
     18 O2A          3.6290     0.6810    -2.1530 o          1 6SZ      -0.562000
     19 O1A          5.0160    -0.8990    -0.5970 oh         1 6SZ      -0.722400
     20 C9           1.6980     0.4540     1.2730 c5         1 6SZ       0.068300
     21 C10          2.6500     1.5990     0.9940 c6         1 6SZ       0.218600
     22 O5           3.8280     1.0020     0.4240 os         1 6SZ      -0.593400
     23 H1          -5.9780    -2.4030    -0.4910 hn         1 6SZ       0.494500
     24 H2          -4.6510    -2.9780     0.4260 hn         1 6SZ       0.494500
     25 H3          -5.0900     1.7390    -1.8040 h4         1 6SZ       0.041100
     26 H4          -0.4990     2.5720     0.0720 h5         1 6SZ       0.073800
     27 H5          -1.0950    -0.5110     2.0610 h2         1 6SZ       0.107700
     28 H6          -0.4130    -1.4510    -0.4530 h1         1 6SZ       0.085700
     29 H7          -0.1050    -2.7570     1.3830 ho         1 6SZ       0.519000
     30 H8           1.0510     0.4260    -0.7830 h1         1 6SZ       0.071700
     31 H9           5.5740    -1.0120    -1.3790 ho         1 6SZ       0.493000
     32 H10          2.1720    -0.2250     1.9930 h1         1 6SZ       0.103700
     33 H11          2.2140     2.3290     0.3070 h1         1 6SZ       0.073700
     34 H12          2.9700     2.1150     1.8970 h1         1 6SZ       0.073700
@<TRIPOS>BOND
     1     1     3 ar  
     2     1     4 ar  
     3     2     4 1   
     4     2    23 1   
     5     2    24 1   
     6     3     7 ar  
     7     3    25 1   
     8     4     5 ar  
     9     5     6 ar  
    10     6     7 ar  
    11     6    10 1   
    12     7     8 1   
    13     8     9 2   
    14     9    10 1   
    15     9    26 1   
    16    10    11 1   
    17    11    12 1   
    18    11    13 1   
    19    11    27 1   
    20    12    20 1   
    21    13    14 1   
    22    13    15 1   
    23    13    28 1   
    24    14    29 1   
    25    15    16 1   
    26    15    20 1   
    27    15    30 1   
    28    16    17 1   
    29    17    18 2   
    30    17    19 1   
    31    17    22 1   
    32    19    31 1   
    33    20    21 1   
    34    20    32 1   
    35    21    22 1   
    36    21    33 1   
    37    21    34 1   
@<TRIPOS>SUBSTRUCTURE
     1 6SZ         1 TEMP              0 ****  ****    0 ROOT
