@<TRIPOS>MOLECULE
6T0
   34    36     1     0     0
SMALL
abcg2


@<TRIPOS>ATOM
      1 C9          -2.1410     1.5480     0.2150 ca         1 6T0       0.686900
      2 C10         -0.7520     1.6070    -0.1000 ca         1 6T0      -0.041600
      3 C2          -0.0600    -2.0930    -0.3560 ca         1 6T0      -0.083000
      4 C3          -0.6650    -0.8360    -0.1800 ca         1 6T0      -0.095000
      5 C4          -2.0530    -0.7640     0.1290 ca         1 6T0       0.336000
      6 C5          -2.7690    -1.9720     0.2490 ca         1 6T0      -0.104000
      7 C6          -2.1560    -3.1880     0.0720 ca         1 6T0      -0.092000
      8 C7          -0.7900    -3.2520    -0.2340 ca         1 6T0      -0.134000
      9 C8           4.2510    -1.3530     0.0560 c3         1 6T0      -0.091100
     10 C1           3.4700     0.6270     1.3990 c3         1 6T0      -0.091100
     11 N8          -2.7490     0.3940     0.3160 nb         1 6T0      -0.792000
     12 C11         -0.0370     0.4400    -0.2900 ca         1 6T0      -0.031200
     13 N12          0.0350     2.7080    -0.2770 nc         1 6T0      -0.557100
     14 C13          1.2050     2.2170    -0.5680 cd         1 6T0       0.381700
     15 N14          1.2300     0.8570    -0.5940 na         1 6T0      -0.149600
     16 N15         -2.8200     2.6930     0.4380 nv         1 6T0      -1.060900
     17 C19          2.4260     0.0710    -0.8320 c3         1 6T0       0.075600
     18 C20          3.0590    -0.4850     0.4430 c3         1 6T0      -0.083700
     19 H1           0.9920    -2.1680    -0.5920 ha         1 6T0       0.103000
     20 H2          -3.8250    -1.9150     0.4830 ha         1 6T0       0.128000
     21 H3          -2.7300    -4.1010     0.1700 ha         1 6T0       0.113000
     22 H4          -0.3070    -4.2090    -0.3750 ha         1 6T0       0.111000
     23 H5           4.7120    -1.7940     0.9400 hc         1 6T0       0.039367
     24 H6           3.9570    -2.1690    -0.6070 hc         1 6T0       0.039367
     25 H7           5.0130    -0.7640    -0.4590 hc         1 6T0       0.039367
     26 H8           4.1640     1.3230     0.9210 hc         1 6T0       0.039367
     27 H9           2.6140     1.1990     1.7600 hc         1 6T0       0.039367
     28 H10          3.9710     0.2110     2.2740 hc         1 6T0       0.039367
     29 H11          2.0940     2.7930    -0.7820 h5         1 6T0       0.062800
     30 H12         -3.8250     2.6570     0.4530 hn         1 6T0       0.491000
     31 H13         -2.4080     3.5660     0.1590 hn         1 6T0       0.491000
     32 H14          2.1880    -0.7280    -1.5360 h1         1 6T0       0.061200
     33 H15          3.1390     0.7230    -1.3390 h1         1 6T0       0.061200
     34 H16          2.3250    -1.1180     0.9530 hc         1 6T0       0.066700
@<TRIPOS>BOND
     1     1     2 ar  
     2     1    11 ar  
     3     1    16 1   
     4     2    12 ar  
     5     2    13 1   
     6     3     4 ar  
     7     3     8 ar  
     8     3    19 1   
     9     4     5 ar  
    10     4    12 ar  
    11     5     6 ar  
    12     5    11 ar  
    13     6     7 ar  
    14     6    20 1   
    15     7     8 ar  
    16     7    21 1   
    17     8    22 1   
    18     9    18 1   
    19     9    23 1   
    20     9    24 1   
    21     9    25 1   
    22    10    18 1   
    23    10    26 1   
    24    10    27 1   
    25    10    28 1   
    26    12    15 1   
    27    13    14 2   
    28    14    15 1   
    29    14    29 1   
    30    15    17 1   
    31    16    30 1   
    32    16    31 1   
    33    17    18 1   
    34    17    32 1   
    35    17    33 1   
    36    18    34 1   
@<TRIPOS>SUBSTRUCTURE
     1 6T0         1 TEMP              0 ****  ****    0 ROOT
