@<TRIPOS>MOLECULE
6T0
   34    36     1     0     0
SMALL
No Charge or Current Charge


@<TRIPOS>ATOM
      1 C9          -2.0570     1.5620     0.3090 ca         1 6T0       0.686900
      2 C10         -0.7190     1.6750    -0.1310 ca         1 6T0      -0.041600
      3 C2          -0.0320    -1.9770    -0.5190 ca         1 6T0      -0.083000
      4 C3          -0.6520    -0.7360    -0.2340 ca         1 6T0      -0.095000
      5 C4          -2.0130    -0.7300     0.2140 ca         1 6T0       0.336000
      6 C5          -2.6850    -1.9550     0.3810 ca         1 6T0      -0.104000
      7 C6          -2.0510    -3.1760     0.1090 ca         1 6T0      -0.092000
      8 C7          -0.7270    -3.1840    -0.3450 ca         1 6T0      -0.134000
      9 C8           4.1450    -1.4950     0.1880 c3         1 6T0      -0.091100
     10 C1           3.4200     0.6070     1.4360 c3         1 6T0      -0.091100
     11 N8          -2.6970     0.4130     0.4800 nb         1 6T0      -0.792000
     12 C11         -0.0110     0.5280    -0.3800 ca         1 6T0      -0.031200
     13 N12          0.0280     2.8290    -0.3750 nc         1 6T0      -0.557100
     14 C13          1.2130     2.3270    -0.7650 cd         1 6T0       0.381700
     15 N14          1.2600     0.9230    -0.7780 na         1 6T0      -0.149600
     16 N15         -2.8600     2.5970     0.5790 nv         1 6T0      -1.060900
     17 C19          2.4770     0.0980    -0.9050 c3         1 6T0       0.075600
     18 C20          2.9940    -0.4940     0.4350 c3         1 6T0      -0.083700
     19 H1           0.9830    -2.0440    -0.8820 ha         1 6T0       0.103000
     20 H2          -3.7150    -1.9550     0.7230 ha         1 6T0       0.128000
     21 H3          -2.5890    -4.1130     0.2430 ha         1 6T0       0.113000
     22 H4          -0.2350    -4.1290    -0.5650 ha         1 6T0       0.111000
     23 H5           4.4740    -1.9470     1.1310 hc         1 6T0       0.039367
     24 H6           3.8190    -2.3040    -0.4770 hc         1 6T0       0.039367
     25 H7           5.0060    -0.9960    -0.2730 hc         1 6T0       0.039367
     26 H8           4.2210     1.2280     1.0180 hc         1 6T0       0.039367
     27 H9           2.5740     1.2580     1.6880 hc         1 6T0       0.039367
     28 H10          3.7840     0.1600     2.3690 hc         1 6T0       0.039367
     29 H11          2.0900     2.9130    -1.0140 h5         1 6T0       0.062800
     30 H12         -3.8450     2.3690     0.5560 hn         1 6T0       0.491000
     31 H13         -2.5870     3.4810     0.1660 hn         1 6T0       0.491000
     32 H14          2.3030    -0.6880    -1.6470 h1         1 6T0       0.061200
     33 H15          3.2680     0.7320    -1.3260 h1         1 6T0       0.061200
     34 H16          2.1760    -1.0540     0.9030 hc         1 6T0       0.066700
@<TRIPOS>BOND
     1     1     2 ar  
     2     1    11 ar  
     3     1    16 1   
     4     2    12 ar  
     5     2    13 1   
     6     3     4 ar  
     7     3     8 ar  
     8     3    19 1   
     9     4     5 ar  
    10     4    12 ar  
    11     5     6 ar  
    12     5    11 ar  
    13     6     7 ar  
    14     6    20 1   
    15     7     8 ar  
    16     7    21 1   
    17     8    22 1   
    18     9    18 1   
    19     9    23 1   
    20     9    24 1   
    21     9    25 1   
    22    10    18 1   
    23    10    26 1   
    24    10    27 1   
    25    10    28 1   
    26    12    15 1   
    27    13    14 2   
    28    14    15 1   
    29    14    29 1   
    30    15    17 1   
    31    16    30 1   
    32    16    31 1   
    33    17    18 1   
    34    17    32 1   
    35    17    33 1   
    36    18    34 1   
@<TRIPOS>SUBSTRUCTURE
     1 6T0         1 TEMP              0 ****  ****    0 ROOT
