@<TRIPOS>MOLECULE
6T1
   72    76     1     0     0
SMALL
bcc


@<TRIPOS>ATOM
      1 C1           0.7360     6.7470     0.8900 ca         1 6T1      -0.168000
      2 C2          -0.6390     6.6450     0.7680 ca         1 6T1      -0.079000
      3 C3          -1.2160     5.5470     0.1420 ca         1 6T1      -0.223000
      4 C7           1.8790     3.5810    -0.8060 cp         1 6T1       0.477800
      5 C8           2.8650     3.0300     0.0080 ca         1 6T1      -0.190300
      6 C9           3.7120     2.0590    -0.5080 ca         1 6T1      -0.113600
      7 C10          3.5490     1.6870    -1.8360 ca         1 6T1      -0.234300
      8 C11          2.5450     2.3010    -2.5710 ca         1 6T1       0.398200
      9 C12          4.7780     1.4930     0.3800 c          1 6T1       0.675700
     10 C13          6.2000    -0.4360     0.8620 c3         1 6T1       0.101000
     11 C14          6.6490    -1.6980     0.1440 c3         1 6T1      -0.097400
     12 C15          7.7340    -2.4190     0.9310 c3         1 6T1       0.175800
     13 C16          9.0270    -4.4470     1.1660 c5         1 6T1       0.158800
     14 C19          8.7790    -3.5780    -0.9520 c5         1 6T1       0.158800
     15 C20         -2.2880     3.2760    -1.0810 cy         1 6T1       0.114100
     16 C21         -3.0820     2.8680     0.1700 cy         1 6T1       0.130800
     17 C22         -2.7160     1.9310    -1.6650 cy         1 6T1       0.130800
     18 C24         -4.8830    -0.2620    -1.0580 c3         1 6T1      -0.033100
     19 C27         -4.5980    -3.8900     0.0220 ca         1 6T1      -0.113000
     20 C30         -6.3660    -1.7750     0.2870 ca         1 6T1      -0.113000
     21 C28         -5.7620    -4.0570     0.7570 ca         1 6T1       0.024400
     22 C26         -4.3240    -2.6710    -0.5760 ca         1 6T1      -0.118000
     23 C29         -6.6470    -2.9930     0.8870 ca         1 6T1       0.028400
     24 CL1         -8.1060    -3.1720     1.7890 cl         1 6T1      -0.082400
     25 C25         -5.2020    -1.5980    -0.4540 ca         1 6T1      -0.068300
     26 N4          -3.7870     1.8910    -0.6630 nq         1 6T1      -0.714600
     27 C4          -0.4120     4.5370    -0.3800 ca         1 6T1       0.178100
     28 C5           0.9850     4.6320    -0.2710 cp         1 6T1      -0.184500
     29 C6           1.5340     5.7360     0.3730 ca         1 6T1      -0.076000
     30 N1           1.7280     3.2190    -2.0780 nb         1 6T1      -0.636000
     31 O1           5.2390     2.1540     1.3000 o          1 6T1      -0.596100
     32 N2           5.1770     0.2480     0.0960 ns         1 6T1      -0.566900
     33 N3           8.1150    -3.6780     0.3360 n3         1 6T1      -0.721600
     34 C18          9.2840    -4.9970    -1.1880 c5         1 6T1      -0.079900
     35 C17          9.5960    -5.5200     0.2280 c5         1 6T1      -0.079900
     36 H1           1.1870     7.6010     1.3770 ha         1 6T1       0.138000
     37 H2          -1.2810     7.4210     1.1650 ha         1 6T1       0.131000
     38 H3          -2.2940     5.4920     0.0780 ha         1 6T1       0.139000
     39 H4           2.9580     3.3460     1.0390 ha         1 6T1       0.164000
     40 H5           4.1890     0.9590    -2.3170 ha         1 6T1       0.139000
     41 H6           2.4050     2.0390    -3.6140 h4         1 6T1       0.021100
     42 H7           5.8230    -0.6840     1.8600 h1         1 6T1       0.053700
     43 H8           7.0480     0.2380     1.0000 h1         1 6T1       0.053700
     44 H9           5.8000    -2.3740     0.0090 hc         1 6T1       0.051200
     45 H10          7.0130    -1.4310    -0.8520 hc         1 6T1       0.051200
     46 H11          8.6050    -1.7500     1.0520 h1         1 6T1       0.032700
     47 H12          7.3600    -2.6230     1.9400 h1         1 6T1       0.032700
     48 H13          9.8450    -3.8170     1.5540 h1         1 6T1       0.035200
     49 H14          8.5050    -4.8630     2.0310 h1         1 6T1       0.035200
     50 H15          8.0960    -3.2360    -1.7320 h1         1 6T1       0.035200
     51 H16          9.6250    -2.8680    -0.9200 h1         1 6T1       0.035200
     52 H17         -2.7390     4.1220    -1.6090 h1         1 6T1       0.071700
     53 H18         -2.4240     2.4110     0.9220 h1         1 6T1       0.061200
     54 H19         -3.7150     3.6130     0.6570 h1         1 6T1       0.061200
     55 H20         -3.0350     1.9050    -2.7080 h1         1 6T1       0.061200
     56 H21         -1.9450     1.1650    -1.5040 h1         1 6T1       0.061200
     57 H22         -4.2880    -0.4020    -1.9640 hc         1 6T1       0.059200
     58 H23         -5.8000     0.2510    -1.3570 hc         1 6T1       0.059200
     59 H24         -3.9090    -4.7170    -0.0840 ha         1 6T1       0.150000
     60 H25         -7.0680    -0.9580     0.3980 ha         1 6T1       0.151000
     61 H26         -3.4130    -2.5620    -1.1500 ha         1 6T1       0.138000
     62 H30          2.6120     5.8110     0.4540 ha         1 6T1       0.139000
     63 H31          4.6600    -0.2940    -0.5790 hn         1 6T1       0.317500
     64 H33          8.5040    -5.5990    -1.6560 hc         1 6T1       0.047450
     65 H34         10.1500    -5.0160    -1.8500 hc         1 6T1       0.047450
     66 H35         10.6660    -5.6450     0.3900 hc         1 6T1       0.047450
     67 H36          9.1330    -6.4920     0.4010 hc         1 6T1       0.047450
     68 O2          -0.8980     3.4310    -0.9740 os         1 6T1      -0.295900
     69 C23         -4.1180     0.6200    -0.0740 c3         1 6T1       0.168800
     70 CL2         -6.0950    -5.5770     1.4960 cl         1 6T1      -0.080400
     71 H27         -4.7380     0.8000     0.8090 h1         1 6T1       0.038700
     72 H28         -3.2180     0.0850     0.2750 h1         1 6T1       0.038700
@<TRIPOS>BOND
     1     1     2 ar  
     2     1    29 ar  
     3     1    36 1   
     4     2     3 ar  
     5     2    37 1   
     6     3    27 ar  
     7     3    38 1   
     8     4     5 ar  
     9     4    28 1   
    10     4    30 ar  
    11     5     6 ar  
    12     5    39 1   
    13     6     7 ar  
    14     6     9 1   
    15     7     8 ar  
    16     7    40 1   
    17     8    30 ar  
    18     8    41 1   
    19     9    31 2   
    20     9    32 1   
    21    10    11 1   
    22    10    32 1   
    23    10    42 1   
    24    10    43 1   
    25    11    12 1   
    26    11    44 1   
    27    11    45 1   
    28    12    33 1   
    29    12    46 1   
    30    12    47 1   
    31    13    33 1   
    32    13    35 1   
    33    13    48 1   
    34    13    49 1   
    35    14    33 1   
    36    14    34 1   
    37    14    50 1   
    38    14    51 1   
    39    15    16 1   
    40    15    17 1   
    41    15    52 1   
    42    15    68 1   
    43    16    26 1   
    44    16    53 1   
    45    16    54 1   
    46    17    26 1   
    47    17    55 1   
    48    17    56 1   
    49    18    25 1   
    50    18    57 1   
    51    18    58 1   
    52    18    69 1   
    53    19    21 ar  
    54    19    22 ar  
    55    19    59 1   
    56    20    23 ar  
    57    20    25 ar  
    58    20    60 1   
    59    21    23 ar  
    60    21    70 1   
    61    22    25 ar  
    62    22    61 1   
    63    23    24 1   
    64    26    69 1   
    65    27    28 ar  
    66    27    68 1   
    67    28    29 ar  
    68    29    62 1   
    69    32    63 1   
    70    34    35 1   
    71    34    64 1   
    72    34    65 1   
    73    35    66 1   
    74    35    67 1   
    75    69    71 1   
    76    69    72 1   
@<TRIPOS>SUBSTRUCTURE
     1 6T1         1 TEMP              0 ****  ****    0 ROOT
