@<TRIPOS>MOLECULE
6T1
   72    76     1     0     0
SMALL
No Charge or Current Charge


@<TRIPOS>ATOM
      1 C1           0.7740     6.6250     0.7320 ca         1 6T1      -0.150000
      2 C2          -0.6090     6.6010     0.4990 ca         1 6T1      -0.061000
      3 C3          -1.1900     5.5000    -0.1500 ca         1 6T1      -0.205000
      4 C7           1.9120     3.3170    -0.7930 cp         1 6T1       0.412500
      5 C8           2.8200     2.7210     0.1140 ca         1 6T1      -0.107000
      6 C9           3.6860     1.6890    -0.3080 ca         1 6T1      -0.113600
      7 C10          3.5970     1.3070    -1.6680 ca         1 6T1      -0.151000
      8 C11          2.6810     1.9570    -2.5120 ca         1 6T1       0.332900
      9 C12          4.6470     1.0500     0.6720 c          1 6T1       0.608700
     10 C13          6.4450    -0.6800     0.9750 c3         1 6T1       0.101000
     11 C14          7.2270    -1.6930     0.1200 c3         1 6T1      -0.097400
     12 C15          8.2730    -2.4740     0.9430 c3         1 6T1       0.175800
     13 C16          9.9090    -4.3530     0.9690 c5         1 6T1       0.158800
     14 C19          9.8270    -3.0610    -0.9420 c5         1 6T1       0.158800
     15 C20         -2.3310     2.9990    -1.1280 cy         1 6T1       0.137300
     16 C21         -2.9240     2.5790     0.2610 cy         1 6T1       0.130800
     17 C22         -2.7390     1.5470    -1.5490 cy         1 6T1       0.130800
     18 C24         -5.3840    -0.2030    -0.9720 c3         1 6T1      -0.033100
     19 C27         -6.2010    -3.7080     0.3580 ca         1 6T1      -0.095000
     20 C30         -7.4270    -1.1860     0.1820 ca         1 6T1      -0.095000
     21 C28         -7.4980    -3.5240     0.8670 ca         1 6T1       0.116000
     22 C26         -5.5170    -2.6330    -0.2390 ca         1 6T1      -0.100000
     23 C29         -8.1120    -2.2580     0.7790 ca         1 6T1       0.120000
     24 Cl1         -9.7380    -1.9890     1.4090 cl         1 6T1      -0.174000
     25 C25         -6.1270    -1.3670    -0.3320 ca         1 6T1      -0.068300
     26 N4          -3.8400     1.7170    -0.5490 nq         1 6T1      -0.714600
     27 C4          -0.3850     4.4190    -0.5730 ca         1 6T1       0.178100
     28 C5           1.0200     4.4370    -0.3610 cp         1 6T1      -0.184500
     29 C6           1.5790     5.5550     0.3090 ca         1 6T1      -0.058000
     30 N1           1.8610     2.9430    -2.0900 nb         1 6T1      -0.636000
     31 O1           4.7100     1.3960     1.8440 o          1 6T1      -0.596100
     32 N2           5.4570     0.0500     0.1790 ns         1 6T1      -0.499900
     33 N3           8.9770    -3.5270     0.1770 n3         1 6T1      -0.721600
     34 C18         10.5020    -4.3810    -1.4050 c5         1 6T1      -0.079900
     35 C17         10.5010    -5.2770    -0.1260 c5         1 6T1      -0.079900
     36 H1           1.2240     7.4760     1.2380 ha         1 6T1       0.120000
     37 H2          -1.2300     7.4330     0.8250 ha         1 6T1       0.113000
     38 H3          -2.2630     5.5010    -0.3140 ha         1 6T1       0.121000
     39 H4           2.8340     3.0650     1.1450 ha         1 6T1       0.146000
     40 H5           4.2210     0.5250    -2.0890 ha         1 6T1       0.121000
     41 H6           2.6030     1.6810    -3.5630 h4         1 6T1       0.021100
     42 H7           5.9250    -1.2060     1.7880 h1         1 6T1       0.053700
     43 H8           7.1430     0.0410     1.4210 h1         1 6T1       0.053700
     44 H9           6.5240    -2.4040    -0.3320 hc         1 6T1       0.051200
     45 H10          7.7240    -1.1590    -0.6970 hc         1 6T1       0.051200
     46 H11          9.0010    -1.7620     1.3560 h1         1 6T1       0.032700
     47 H12          7.7570    -2.9370     1.7950 h1         1 6T1       0.032700
     48 H13         10.6910    -3.7380     1.4370 h1         1 6T1       0.035200
     49 H14          9.4020    -4.9230     1.7600 h1         1 6T1       0.035200
     50 H15          9.2490    -2.5950    -1.7520 h1         1 6T1       0.035200
     51 H16         10.5770    -2.3360    -0.5950 h1         1 6T1       0.035200
     52 H17         -2.9120     3.7720    -1.6460 h1         1 6T1       0.071700
     53 H18         -2.2120     2.0370     0.8970 h1         1 6T1       0.061200
     54 H19         -3.3960     3.3910     0.8250 h1         1 6T1       0.061200
     55 H20         -3.0450     1.4410    -2.5960 h1         1 6T1       0.061200
     56 H21         -1.9880     0.7880    -1.2940 h1         1 6T1       0.061200
     57 H22         -4.7370    -0.5680    -1.7780 hc         1 6T1       0.059200
     58 H23         -6.0950     0.4900    -1.4390 hc         1 6T1       0.059200
     59 H24         -5.7250    -4.6830     0.4260 ha         1 6T1       0.132000
     60 H25         -7.9070    -0.2120     0.1200 ha         1 6T1       0.133000
     61 H26         -4.5130    -2.7860    -0.6280 ha         1 6T1       0.120000
     62 H30          2.6510     5.5960     0.4920 ha         1 6T1       0.121000
     63 H31          5.3520    -0.1870    -0.7980 hn         1 6T1       0.317500
     64 H33          9.9300    -4.8540    -2.2110 hc         1 6T1       0.047450
     65 H34         11.5130    -4.2010    -1.7880 hc         1 6T1       0.047450
     66 H35         11.5020    -5.6340     0.1400 hc         1 6T1       0.047450
     67 H36          9.8700    -6.1620    -0.2720 hc         1 6T1       0.047450
     68 O2          -0.9270     3.2990    -1.1710 os         1 6T1      -0.319100
     69 C23         -4.5310     0.5710     0.0530 c3         1 6T1       0.168800
     70 Cl2         -8.3280    -4.8920     1.6100 cl         1 6T1      -0.172000
     71 H27         -5.1840     0.9370     0.8570 h1         1 6T1       0.038700
     72 H28         -3.7900    -0.1060     0.4990 h1         1 6T1       0.038700
@<TRIPOS>BOND
     1     1     2 ar  
     2     1    29 ar  
     3     1    36 1   
     4     2     3 ar  
     5     2    37 1   
     6     3    27 ar  
     7     3    38 1   
     8     4     5 ar  
     9     4    28 1   
    10     4    30 ar  
    11     5     6 ar  
    12     5    39 1   
    13     6     7 ar  
    14     6     9 1   
    15     7     8 ar  
    16     7    40 1   
    17     8    30 ar  
    18     8    41 1   
    19     9    31 2   
    20     9    32 1   
    21    10    11 1   
    22    10    32 1   
    23    10    42 1   
    24    10    43 1   
    25    11    12 1   
    26    11    44 1   
    27    11    45 1   
    28    12    33 1   
    29    12    46 1   
    30    12    47 1   
    31    13    33 1   
    32    13    35 1   
    33    13    48 1   
    34    13    49 1   
    35    14    33 1   
    36    14    34 1   
    37    14    50 1   
    38    14    51 1   
    39    15    16 1   
    40    15    17 1   
    41    15    52 1   
    42    15    68 1   
    43    16    26 1   
    44    16    53 1   
    45    16    54 1   
    46    17    26 1   
    47    17    55 1   
    48    17    56 1   
    49    18    25 1   
    50    18    57 1   
    51    18    58 1   
    52    18    69 1   
    53    19    21 ar  
    54    19    22 ar  
    55    19    59 1   
    56    20    23 ar  
    57    20    25 ar  
    58    20    60 1   
    59    21    23 ar  
    60    21    70 1   
    61    22    25 ar  
    62    22    61 1   
    63    23    24 1   
    64    26    69 1   
    65    27    28 ar  
    66    27    68 1   
    67    28    29 ar  
    68    29    62 1   
    69    32    63 1   
    70    34    35 1   
    71    34    64 1   
    72    34    65 1   
    73    35    66 1   
    74    35    67 1   
    75    69    71 1   
    76    69    72 1   
@<TRIPOS>SUBSTRUCTURE
     1 6T1         1 TEMP              0 ****  ****    0 ROOT
