@<TRIPOS>MOLECULE
6T2
   62    67     1     0     0
SMALL
No Charge or Current Charge


@<TRIPOS>ATOM
      1 C1           0.9060    -3.4830    -1.2240 cc         1 6T2       0.437700
      2 C2           2.3000    -1.9270     0.0320 ca         1 6T2       0.473500
      3 C3           3.2450    -2.8470     0.5230 ca         1 6T2      -0.174000
      4 C4           4.5210    -2.4090     0.9000 ca         1 6T2      -0.045000
      5 C5          -4.7550     0.2440     0.5600 c3         1 6T2       0.179600
      6 C6           4.8270    -1.0450     0.7810 ca         1 6T2      -0.084000
      7 C7           3.8430    -0.1490     0.2830 ca         1 6T2       0.295000
      8 C9          -0.1610    -1.8450    -0.1370 ca         1 6T2      -0.088200
      9 C10         -1.0380    -2.5800    -0.8850 ca         1 6T2       0.097400
     10 C11          4.1790     1.2460     0.1870 ca         1 6T2       0.294000
     11 C12         -2.3990    -2.2550    -0.9040 ca         1 6T2      -0.099000
     12 C13         -2.8470    -1.1570    -0.1400 ca         1 6T2       0.124100
     13 C14          5.4630     1.6790     0.5800 ca         1 6T2      -0.157000
     14 C15          6.4180     0.7720     1.0630 ca         1 6T2      -0.084000
     15 C30          3.1230     3.5600     0.3620 c6         1 6T2       0.192300
     16 C40          1.6510     4.0360     0.3360 c6         1 6T2      -0.095400
     17 C50          1.0920     4.0230    -1.1060 c6         1 6T2       0.154500
     18 N80         -0.3240     4.4430    -1.1190 n8         1 6T2      -0.986200
     19 C60          1.2530     2.6170    -1.7290 c6         1 6T2      -0.095400
     20 C70          2.7330     2.1680    -1.6810 c6         1 6T2       0.192300
     21 N4           3.2560     2.2290    -0.2900 nh         1 6T2      -0.761400
     22 N3           2.6110    -0.6160    -0.0770 nb         1 6T2      -0.689000
     23 C16          6.1000    -0.5870     1.1640 ca         1 6T2      -0.108000
     24 N1           1.0550    -2.4270    -0.3330 na         1 6T2      -0.197100
     25 N2          -0.3950    -3.6150    -1.5710 nd         1 6T2      -0.567100
     26 C19         -0.5530    -0.7470     0.6400 ca         1 6T2      -0.049000
     27 C18         -1.9210    -0.4010     0.6330 ca         1 6T2      -0.189000
     28 O1          -4.1930    -0.8570    -0.1780 os         1 6T2      -0.349100
     29 C23         -6.2760     0.2930     0.2890 cy         1 6T2      -0.116000
     30 C27         -6.5160     0.6320    -1.1990 c3         1 6T2      -0.074100
     31 C24         -7.1080     1.1220     1.3250 cy         1 6T2       0.146100
     32 O2          -7.2240    -0.1070     2.1240 oq         1 6T2      -0.451000
     33 C26         -7.1080    -0.8920     0.8850 cy         1 6T2       0.146100
     34 H1           1.7370    -4.0800    -1.5820 h5         1 6T2       0.062800
     35 H2           2.9890    -3.8980     0.6210 ha         1 6T2       0.131000
     36 H3           5.2540    -3.1170     1.2830 ha         1 6T2       0.125000
     37 H4          -4.5870     0.1110     1.6370 h1         1 6T2       0.037700
     38 H5          -4.3060     1.1970     0.2500 h1         1 6T2       0.037700
     39 H6          -3.0980    -2.8370    -1.4980 ha         1 6T2       0.142000
     40 H7           5.7300     2.7290     0.5010 ha         1 6T2       0.119000
     41 H8           7.4040     1.1250     1.3580 ha         1 6T2       0.117000
     42 H9           3.7570     4.2960    -0.1550 h1         1 6T2       0.040200
     43 H10          3.4600     3.5100     1.4080 h1         1 6T2       0.040200
     44 H11          1.0490     3.3830     0.9810 hc         1 6T2       0.052950
     45 H12          1.5860     5.0470     0.7600 hc         1 6T2       0.052950
     46 H13          1.6600     4.7470    -1.7130 h1         1 6T2       0.056700
     47 H14         -0.6800     4.3730    -2.0790 hn         1 6T2       0.390500
     48 H15         -0.8750     3.7440    -0.6080 hn         1 6T2       0.390500
     49 H17          0.6370     1.8860    -1.1870 hc         1 6T2       0.052950
     50 H18          0.9050     2.6170    -2.7700 hc         1 6T2       0.052950
     51 H19          2.8120     1.1500    -2.0880 h1         1 6T2       0.040200
     52 H20          3.3320     2.8220    -2.3320 h1         1 6T2       0.040200
     53 H21          6.8450    -1.2840     1.5430 ha         1 6T2       0.119000
     54 H22          0.1680    -0.1800     1.2260 ha         1 6T2       0.156000
     55 H23         -2.2430     0.4480     1.2290 ha         1 6T2       0.114000
     56 H24         -6.1110    -0.1440    -1.8610 hc         1 6T2       0.044700
     57 H25         -7.5870     0.7180    -1.4170 hc         1 6T2       0.044700
     58 H26         -6.0470     1.5850    -1.4710 hc         1 6T2       0.044700
     59 H27         -6.5680     1.9190     1.8480 h1         1 6T2       0.055700
     60 H28         -8.0870     1.4650     0.9670 h1         1 6T2       0.055700
     61 H29         -8.0870    -1.0540     0.4150 h1         1 6T2       0.055700
     62 H30         -6.5680    -1.8350     1.0290 h1         1 6T2       0.055700
@<TRIPOS>BOND
     1     1    24 1   
     2     1    25 2   
     3     1    34 1   
     4     2     3 ar  
     5     2    22 ar  
     6     2    24 1   
     7     3     4 ar  
     8     3    35 1   
     9     4     6 ar  
    10     4    36 1   
    11     5    28 1   
    12     5    29 1   
    13     5    37 1   
    14     5    38 1   
    15     6     7 ar  
    16     6    23 ar  
    17     7    10 ar  
    18     7    22 ar  
    19     8     9 ar  
    20     8    24 1   
    21     8    26 ar  
    22     9    11 ar  
    23     9    25 1   
    24    10    13 ar  
    25    10    21 1   
    26    11    12 ar  
    27    11    39 1   
    28    12    27 ar  
    29    12    28 1   
    30    13    14 ar  
    31    13    40 1   
    32    14    23 ar  
    33    14    41 1   
    34    15    16 1   
    35    15    21 1   
    36    15    42 1   
    37    15    43 1   
    38    16    17 1   
    39    16    44 1   
    40    16    45 1   
    41    17    18 1   
    42    17    19 1   
    43    17    46 1   
    44    18    47 1   
    45    18    48 1   
    46    19    20 1   
    47    19    49 1   
    48    19    50 1   
    49    20    21 1   
    50    20    51 1   
    51    20    52 1   
    52    23    53 1   
    53    26    27 ar  
    54    26    54 1   
    55    27    55 1   
    56    29    30 1   
    57    29    31 1   
    58    29    33 1   
    59    30    56 1   
    60    30    57 1   
    61    30    58 1   
    62    31    32 1   
    63    31    59 1   
    64    31    60 1   
    65    32    33 1   
    66    33    61 1   
    67    33    62 1   
@<TRIPOS>SUBSTRUCTURE
     1 6T2         1 TEMP              0 ****  ****    0 ROOT
