@<TRIPOS>MOLECULE
6T2
   62    67     1     0     0
SMALL
bcc


@<TRIPOS>ATOM
      1 C1           0.8460    -3.8240    -0.8400 cc         1 6T2       0.437700
      2 C2           2.4690    -2.0810    -0.1600 ca         1 6T2       0.538800
      3 C3           3.5570    -2.9730    -0.0030 ca         1 6T2      -0.257300
      4 C4           4.7750    -2.4310     0.2740 ca         1 6T2      -0.063000
      5 C5          -4.4340     0.3950     0.2060 c3         1 6T2       0.156400
      6 C6           4.9280    -1.0310     0.4060 ca         1 6T2      -0.149300
      7 C7           3.7740    -0.2370     0.2080 ca         1 6T2       0.425600
      8 C9          -0.0200    -1.8900    -0.2340 ca         1 6T2      -0.088200
      9 C10         -1.0080    -2.8190    -0.5910 ca         1 6T2       0.097400
     10 C11          3.8590     1.1870     0.3320 ca         1 6T2       0.090300
     11 C12         -2.3550    -2.4860    -0.5390 ca         1 6T2      -0.117000
     12 C13         -2.6950    -1.2060    -0.1180 ca         1 6T2       0.124100
     13 C14          5.0740     1.7280     0.6980 ca         1 6T2      -0.175000
     14 C15          6.2100     0.9260     0.9190 ca         1 6T2      -0.102000
     15 C30          2.6810     3.2630     0.7500 c6         1 6T2       0.192300
     16 C40          1.2740     3.8380     0.7230 c6         1 6T2      -0.095400
     17 C50          0.7550     3.9590    -0.7030 c6         1 6T2       0.154500
     18 N80         -0.5870     4.5230    -0.7060 n8         1 6T2      -0.875800
     19 C60          0.8740     2.6020    -1.3930 c6         1 6T2      -0.095400
     20 C70          2.2710     2.0160    -1.2770 c6         1 6T2       0.192300
     21 N4           2.7080     1.9550     0.1180 nh         1 6T2      -0.623000
     22 N3           2.5780    -0.7920    -0.0690 nb         1 6T2      -0.689000
     23 C16          6.1540    -0.4300     0.7620 ca         1 6T2      -0.126000
     24 N1           1.1800    -2.5720    -0.3980 na         1 6T2      -0.197100
     25 N2          -0.4280    -4.0120    -0.9690 nd         1 6T2      -0.567100
     26 C19         -0.3520    -0.6140     0.1930 ca         1 6T2      -0.067000
     27 C18         -1.6980    -0.2860     0.2470 ca         1 6T2      -0.207000
     28 O1          -4.0160    -0.9230    -0.0850 os         1 6T2      -0.325900
     29 C23         -5.9410     0.4560     0.0610 cy         1 6T2      -0.116000
     30 C27         -6.4040     0.0870    -1.3360 c3         1 6T2      -0.074100
     31 C24         -6.5040     1.7630     0.6420 cy         1 6T2       0.122900
     32 O2          -7.0730     1.0790     1.7640 oq         1 6T2      -0.404600
     33 C26         -6.7030    -0.1980     1.2250 cy         1 6T2       0.122900
     34 H1           1.5990    -4.5620    -1.0710 h5         1 6T2       0.062800
     35 H2           3.4340    -4.0450    -0.0690 ha         1 6T2       0.149000
     36 H3           5.6340    -3.0750     0.4170 ha         1 6T2       0.143000
     37 H4          -4.1380     0.6790     1.2240 h1         1 6T2       0.037700
     38 H5          -3.9720     1.1120    -0.4850 h1         1 6T2       0.037700
     39 H6          -3.1200    -3.2000    -0.8180 ha         1 6T2       0.160000
     40 H7           5.1780     2.7990     0.8100 ha         1 6T2       0.137000
     41 H8           7.1390     1.4030     1.2020 ha         1 6T2       0.135000
     42 H9           3.3660     3.9740     0.2590 h1         1 6T2       0.040200
     43 H10          3.0180     3.1600     1.7830 h1         1 6T2       0.040200
     44 H11          0.6090     3.1900     1.3040 hc         1 6T2       0.052950
     45 H12          1.2780     4.8170     1.2070 hc         1 6T2       0.052950
     46 H13          1.4030     4.6680    -1.2330 h1         1 6T2       0.056700
     47 H14         -0.9040     4.6300    -1.6630 hn         1 6T2       0.335300
     48 H15         -1.2290     3.8590    -0.2850 hn         1 6T2       0.335300
     49 H17          0.1520     1.9100    -0.9480 hc         1 6T2       0.052950
     50 H18          0.6150     2.6940    -2.4520 hc         1 6T2       0.052950
     51 H19          2.2800     1.0140    -1.7020 h1         1 6T2       0.040200
     52 H20          2.9740     2.6280    -1.8640 h1         1 6T2       0.040200
     53 H21          7.0270    -1.0500     0.9210 ha         1 6T2       0.137000
     54 H22          0.4020     0.1110     0.4610 ha         1 6T2       0.174000
     55 H23         -1.9620     0.7080     0.5830 ha         1 6T2       0.132000
     56 H24         -6.1820    -0.9540    -1.5680 hc         1 6T2       0.044700
     57 H25         -7.4810     0.2260    -1.4350 hc         1 6T2       0.044700
     58 H26         -5.9170     0.7110    -2.0880 hc         1 6T2       0.044700
     59 H27         -5.7690     2.5190     0.9370 h1         1 6T2       0.055700
     60 H28         -7.2620     2.2420     0.0130 h1         1 6T2       0.055700
     61 H29         -7.5730    -0.7860     0.9150 h1         1 6T2       0.055700
     62 H30         -6.1090    -0.7930     1.9240 h1         1 6T2       0.055700
@<TRIPOS>BOND
     1     1    24 1   
     2     1    25 2   
     3     1    34 1   
     4     2     3 ar  
     5     2    22 ar  
     6     2    24 1   
     7     3     4 ar  
     8     3    35 1   
     9     4     6 ar  
    10     4    36 1   
    11     5    28 1   
    12     5    29 1   
    13     5    37 1   
    14     5    38 1   
    15     6     7 ar  
    16     6    23 ar  
    17     7    10 ar  
    18     7    22 ar  
    19     8     9 ar  
    20     8    24 1   
    21     8    26 ar  
    22     9    11 ar  
    23     9    25 1   
    24    10    13 ar  
    25    10    21 1   
    26    11    12 ar  
    27    11    39 1   
    28    12    27 ar  
    29    12    28 1   
    30    13    14 ar  
    31    13    40 1   
    32    14    23 ar  
    33    14    41 1   
    34    15    16 1   
    35    15    21 1   
    36    15    42 1   
    37    15    43 1   
    38    16    17 1   
    39    16    44 1   
    40    16    45 1   
    41    17    18 1   
    42    17    19 1   
    43    17    46 1   
    44    18    47 1   
    45    18    48 1   
    46    19    20 1   
    47    19    49 1   
    48    19    50 1   
    49    20    21 1   
    50    20    51 1   
    51    20    52 1   
    52    23    53 1   
    53    26    27 ar  
    54    26    54 1   
    55    27    55 1   
    56    29    30 1   
    57    29    31 1   
    58    29    33 1   
    59    30    56 1   
    60    30    57 1   
    61    30    58 1   
    62    31    32 1   
    63    31    59 1   
    64    31    60 1   
    65    32    33 1   
    66    33    61 1   
    67    33    62 1   
@<TRIPOS>SUBSTRUCTURE
     1 6T2         1 TEMP              0 ****  ****    0 ROOT
