@<TRIPOS>MOLECULE
6T3
   67    71     1     0     0
SMALL
No Charge or Current Charge


@<TRIPOS>ATOM
      1 C2          -4.2290     1.8890    -0.1570 cp         1 6T3       0.229500
      2 O1           3.6850     1.1200     0.9510 os         1 6T3      -0.328100
      3 N3          -2.9210     2.1740     0.0020 nb         1 6T3      -0.244000
      4 C4          -2.5620     3.4640     0.1230 ca         1 6T3       0.391900
      5 N2          -3.3820     4.5250     0.0740 nb         1 6T3      -0.247000
      6 C6          -4.6910     4.2660    -0.1020 ca         1 6T3       0.151900
      7 C7          -5.1650     2.9510    -0.2230 ca         1 6T3      -0.272000
      8 N14         -1.2180     3.7880     0.2800 nu         1 6T3      -0.926900
      9 C15         -0.0170     3.0760     0.4380 ca         1 6T3       0.280000
     10 C16          0.0450     1.7070     0.7750 ca         1 6T3      -0.086000
     11 C17          1.2870     1.0560     0.9350 ca         1 6T3      -0.092300
     12 C18          2.4860     1.7800     0.7700 ca         1 6T3       0.134100
     13 C19          2.4300     3.1500     0.4380 ca         1 6T3      -0.170000
     14 C20          1.1870     3.7860     0.2770 ca         1 6T3      -0.128000
     15 C22         -4.6170     0.4370    -0.2600 cp         1 6T3      -0.167500
     16 C23         -5.9560     0.0100    -0.0530 ca         1 6T3      -0.081000
     17 C24         -6.3100    -1.3460    -0.1470 ca         1 6T3      -0.126000
     18 C25         -5.3380    -2.3120    -0.4470 ca         1 6T3      -0.069000
     19 C26         -4.0030    -1.9250    -0.6520 ca         1 6T3      -0.096300
     20 C27         -3.6500    -0.5650    -0.5560 ca         1 6T3      -0.050000
     21 C28          1.3240    -0.4300     1.2750 c3         1 6T3       0.212900
     22 C29         -2.9450    -2.9700    -0.9810 c3         1 6T3       0.200900
     23 O30         -2.5300    -3.6060     0.2420 os         1 6T3      -0.449000
     24 O31          1.5920    -1.1700     0.0670 os         1 6T3      -0.444000
     25 C32          1.8850    -2.5650     0.2540 c3         1 6T3       0.188800
     26 C33          0.6000    -3.2840     0.6130 c2         1 6T3      -0.227200
     27 C34         -0.2080    -3.9140    -0.2570 c2         1 6T3      -0.258200
     28 C35         -1.5080    -4.6070     0.0950 c3         1 6T3       0.188800
     29 C8           4.9530     1.6900     0.5730 c3         1 6T3       0.166600
     30 C9           6.0710     0.6440     0.8360 c3         1 6T3       0.177800
     31 N4           5.8790    -0.6850     0.1940 n3         1 6T3      -0.713600
     32 C11          6.9300    -1.6820     0.4700 c5         1 6T3       0.160300
     33 C12          6.4260    -2.8840    -0.3700 c5         1 6T3      -0.081900
     34 C13          5.7190    -2.2120    -1.5910 c5         1 6T3      -0.081900
     35 C14          5.7930    -0.6910    -1.2810 c5         1 6T3       0.160300
     36 H1          -5.3640     5.1210    -0.1470 h4         1 6T3       0.021100
     37 H2          -6.2240     2.7740    -0.3740 ha         1 6T3       0.136000
     38 H3          -1.0760     4.7970     0.2260 hn         1 6T3       0.509000
     39 H4          -0.8610     1.1360     0.9300 ha         1 6T3       0.151000
     40 H5           3.3360     3.7360     0.3100 ha         1 6T3       0.116000
     41 H6           1.1630     4.8430     0.0250 ha         1 6T3       0.110000
     42 H7          -6.7330     0.7260     0.1970 ha         1 6T3       0.114000
     43 H8          -7.3410    -1.6500     0.0180 ha         1 6T3       0.115000
     44 H9          -5.6200    -3.3610    -0.5150 ha         1 6T3       0.119000
     45 H10         -2.6110    -0.2870    -0.7220 ha         1 6T3       0.137000
     46 H11          2.1050    -0.6120     2.0260 h1         1 6T3       0.036200
     47 H12          0.3650    -0.7360     1.7130 h1         1 6T3       0.036200
     48 H13         -3.3660    -3.7080    -1.6770 h1         1 6T3       0.034700
     49 H14         -2.0970    -2.4830    -1.4800 h1         1 6T3       0.034700
     50 H15          2.2940    -2.9890    -0.6730 h1         1 6T3       0.052700
     51 H16          2.6390    -2.7080     1.0400 h1         1 6T3       0.052700
     52 H17          0.3510    -3.2500     1.6750 ha         1 6T3       0.180000
     53 H18          0.0400    -3.9460    -1.3190 ha         1 6T3       0.172000
     54 H19         -1.3830    -5.1600     1.0360 h1         1 6T3       0.048200
     55 H20         -1.7780    -5.3340    -0.6830 h1         1 6T3       0.048200
     56 H21          4.9500     1.9610    -0.4910 h1         1 6T3       0.031700
     57 H22          5.1640     2.5930     1.1590 h1         1 6T3       0.031700
     58 H23          7.0230     1.0800     0.5030 h1         1 6T3       0.036200
     59 H24          6.1510     0.5100     1.9230 h1         1 6T3       0.036200
     60 H26          7.9140    -1.3350     0.1230 h1         1 6T3       0.037450
     61 H27          7.0090    -1.9290     1.5380 h1         1 6T3       0.037450
     62 H28          7.2470    -3.5440    -0.6710 hc         1 6T3       0.045700
     63 H29          5.7160    -3.4900     0.2040 hc         1 6T3       0.045700
     64 H30          6.2070    -2.4520    -2.5420 hc         1 6T3       0.045700
     65 H31          4.6780    -2.5460    -1.6690 hc         1 6T3       0.045700
     66 H32          4.9120    -0.1540    -1.6580 h1         1 6T3       0.037450
     67 H33          6.6890    -0.2400    -1.7330 h1         1 6T3       0.037450
@<TRIPOS>BOND
     1     1     3 ar  
     2     1     7 ar  
     3     1    15 1   
     4     2    12 1   
     5     2    29 1   
     6     3     4 ar  
     7     4     5 ar  
     8     4     8 1   
     9     5     6 ar  
    10     6     7 ar  
    11     6    36 1   
    12     7    37 1   
    13     8     9 1   
    14     8    38 1   
    15     9    10 ar  
    16     9    14 ar  
    17    10    11 ar  
    18    10    39 1   
    19    11    12 ar  
    20    11    21 1   
    21    12    13 ar  
    22    13    14 ar  
    23    13    40 1   
    24    14    41 1   
    25    15    16 ar  
    26    15    20 ar  
    27    16    17 ar  
    28    16    42 1   
    29    17    18 ar  
    30    17    43 1   
    31    18    19 ar  
    32    18    44 1   
    33    19    20 ar  
    34    19    22 1   
    35    20    45 1   
    36    21    24 1   
    37    21    46 1   
    38    21    47 1   
    39    22    23 1   
    40    22    48 1   
    41    22    49 1   
    42    23    28 1   
    43    24    25 1   
    44    25    26 1   
    45    25    50 1   
    46    25    51 1   
    47    26    27 2   
    48    26    52 1   
    49    27    28 1   
    50    27    53 1   
    51    28    54 1   
    52    28    55 1   
    53    29    30 1   
    54    29    56 1   
    55    29    57 1   
    56    30    31 1   
    57    30    58 1   
    58    30    59 1   
    59    31    32 1   
    60    31    35 1   
    61    32    33 1   
    62    32    60 1   
    63    32    61 1   
    64    33    34 1   
    65    33    62 1   
    66    33    63 1   
    67    34    35 1   
    68    34    64 1   
    69    34    65 1   
    70    35    66 1   
    71    35    67 1   
@<TRIPOS>SUBSTRUCTURE
     1 6T3         1 TEMP              0 ****  ****    0 ROOT
