@<TRIPOS>MOLECULE
6T3
   67    71     1     0     0
SMALL
abcg2


@<TRIPOS>ATOM
      1 C2          -4.0420     1.8620    -0.1360 cp         1 6T3       0.229500
      2 O1           3.5800     1.1470     1.1170 os         1 6T3      -0.328100
      3 N3          -2.7660     2.1980     0.0440 nb         1 6T3      -0.244000
      4 C4          -2.4600     3.4880     0.0540 ca         1 6T3       0.391900
      5 N2          -3.3280     4.4970    -0.1020 nb         1 6T3      -0.247000
      6 C6          -4.5880     4.1510    -0.2830 ca         1 6T3       0.151900
      7 C7          -5.0200     2.8340    -0.3090 ca         1 6T3      -0.272000
      8 N14         -1.1730     3.8810     0.2380 nu         1 6T3      -0.926900
      9 C15         -0.0040     3.1450     0.4350 ca         1 6T3       0.280000
     10 C16          0.0410     1.7850     0.7510 ca         1 6T3      -0.086000
     11 C17          1.2470     1.1330     0.9570 ca         1 6T3      -0.092300
     12 C18          2.4510     1.8370     0.8620 ca         1 6T3       0.134100
     13 C19          2.4170     3.1910     0.5460 ca         1 6T3      -0.170000
     14 C20          1.2050     3.8300     0.3340 ca         1 6T3      -0.128000
     15 C22         -4.3540     0.4180    -0.1600 cp         1 6T3      -0.167500
     16 C23         -5.6300    -0.0480     0.1470 ca         1 6T3      -0.081000
     17 C24         -5.9040    -1.4080     0.1120 ca         1 6T3      -0.126000
     18 C25         -4.9160    -2.3120    -0.2440 ca         1 6T3      -0.069000
     19 C26         -3.6340    -1.8640    -0.5610 ca         1 6T3      -0.096300
     20 C27         -3.3630    -0.5040    -0.5000 ca         1 6T3      -0.050000
     21 C28          1.2490    -0.3430     1.2230 c3         1 6T3       0.212900
     22 C29         -2.5670    -2.8380    -0.9660 c3         1 6T3       0.200900
     23 O30         -2.2750    -3.6790     0.1280 os         1 6T3      -0.449000
     24 O31          1.6510    -0.9990     0.0410 os         1 6T3      -0.444000
     25 C32          1.9140    -2.3770     0.2090 c3         1 6T3       0.188800
     26 C33          0.6650    -3.1560     0.4870 c2         1 6T3      -0.227200
     27 C34          0.0830    -3.9550    -0.4000 c2         1 6T3      -0.258200
     28 C35         -1.2520    -4.6130    -0.1520 c3         1 6T3       0.188800
     29 C8           4.7980     1.6000     0.5610 c3         1 6T3       0.166600
     30 C9           5.8570     0.5390     0.7800 c3         1 6T3       0.177800
     31 N4           5.4930    -0.7620     0.2840 n3         1 6T3      -0.713600
     32 C11          6.5120    -1.7690     0.4970 c5         1 6T3       0.160300
     33 C12          5.9820    -2.9550    -0.2950 c5         1 6T3      -0.081900
     34 C13          5.3340    -2.2940    -1.5230 c5         1 6T3      -0.081900
     35 C14          5.1610    -0.8150    -1.1300 c5         1 6T3       0.160300
     36 H1          -5.2980     4.9600    -0.4190 h4         1 6T3       0.021100
     37 H2          -6.0590     2.5970    -0.4800 ha         1 6T3       0.136000
     38 H3          -1.0500     4.8800     0.1740 hn         1 6T3       0.509000
     39 H4          -0.8740     1.2180     0.8280 ha         1 6T3       0.151000
     40 H5           3.3260     3.7720     0.4670 ha         1 6T3       0.116000
     41 H6           1.2080     4.8870     0.0920 ha         1 6T3       0.110000
     42 H7          -6.4140     0.6420     0.4330 ha         1 6T3       0.114000
     43 H8          -6.8960    -1.7600     0.3630 ha         1 6T3       0.115000
     44 H9          -5.1440    -3.3700    -0.2840 ha         1 6T3       0.119000
     45 H10         -2.3700    -0.1470    -0.7430 ha         1 6T3       0.137000
     46 H11          1.9200    -0.5970     2.0540 h1         1 6T3       0.036200
     47 H12          0.2390    -0.6490     1.5250 h1         1 6T3       0.036200
     48 H13         -2.9120    -3.4330    -1.8230 h1         1 6T3       0.034700
     49 H14         -1.6760    -2.2900    -1.2970 h1         1 6T3       0.034700
     50 H15          2.3630    -2.7180    -0.7260 h1         1 6T3       0.052700
     51 H16          2.6590    -2.5270     1.0020 h1         1 6T3       0.052700
     52 H17          0.1920    -3.0040     1.4540 ha         1 6T3       0.180000
     53 H18          0.5480    -4.1090    -1.3690 ha         1 6T3       0.172000
     54 H19         -1.2000    -5.2650     0.7220 h1         1 6T3       0.048200
     55 H20         -1.5230    -5.2420    -1.0090 h1         1 6T3       0.048200
     56 H21          4.6710     1.8100    -0.5070 h1         1 6T3       0.031700
     57 H22          5.1370     2.5250     1.0390 h1         1 6T3       0.031700
     58 H23          6.7800     0.9240     0.3070 h1         1 6T3       0.036200
     59 H24          6.0710     0.4590     1.8500 h1         1 6T3       0.036200
     60 H26          7.4970    -1.4570     0.1050 h1         1 6T3       0.037450
     61 H27          6.6380    -1.9830     1.5610 h1         1 6T3       0.037450
     62 H28          6.7650    -3.6660    -0.5560 hc         1 6T3       0.045700
     63 H29          5.2360    -3.4890     0.2960 hc         1 6T3       0.045700
     64 H30          5.9740    -2.3810    -2.4010 hc         1 6T3       0.045700
     65 H31          4.3830    -2.7620    -1.7760 hc         1 6T3       0.045700
     66 H32          4.1450    -0.4550    -1.3000 h1         1 6T3       0.037450
     67 H33          5.8410    -0.1860    -1.7290 h1         1 6T3       0.037450
@<TRIPOS>BOND
     1     1     3 ar  
     2     1     7 ar  
     3     1    15 1   
     4     2    12 1   
     5     2    29 1   
     6     3     4 ar  
     7     4     5 ar  
     8     4     8 1   
     9     5     6 ar  
    10     6     7 ar  
    11     6    36 1   
    12     7    37 1   
    13     8     9 1   
    14     8    38 1   
    15     9    10 ar  
    16     9    14 ar  
    17    10    11 ar  
    18    10    39 1   
    19    11    12 ar  
    20    11    21 1   
    21    12    13 ar  
    22    13    14 ar  
    23    13    40 1   
    24    14    41 1   
    25    15    16 ar  
    26    15    20 ar  
    27    16    17 ar  
    28    16    42 1   
    29    17    18 ar  
    30    17    43 1   
    31    18    19 ar  
    32    18    44 1   
    33    19    20 ar  
    34    19    22 1   
    35    20    45 1   
    36    21    24 1   
    37    21    46 1   
    38    21    47 1   
    39    22    23 1   
    40    22    48 1   
    41    22    49 1   
    42    23    28 1   
    43    24    25 1   
    44    25    26 1   
    45    25    50 1   
    46    25    51 1   
    47    26    27 2   
    48    26    52 1   
    49    27    28 1   
    50    27    53 1   
    51    28    54 1   
    52    28    55 1   
    53    29    30 1   
    54    29    56 1   
    55    29    57 1   
    56    30    31 1   
    57    30    58 1   
    58    30    59 1   
    59    31    32 1   
    60    31    35 1   
    61    32    33 1   
    62    32    60 1   
    63    32    61 1   
    64    33    34 1   
    65    33    62 1   
    66    33    63 1   
    67    34    35 1   
    68    34    64 1   
    69    34    65 1   
    70    35    66 1   
    71    35    67 1   
@<TRIPOS>SUBSTRUCTURE
     1 6T3         1 TEMP              0 ****  ****    0 ROOT
