@<TRIPOS>MOLECULE
6T4
   18    18     1     0     0
SMALL
bcc


@<TRIPOS>ATOM
      1 C1           3.6500    -0.9030     0.0750 c3         1 6T4      -0.172100
      2 C2           2.3740    -0.1160     0.0290 c          1 6T4       0.672100
      3 C3          -0.0400    -0.3280     0.0010 cc         1 6T4       0.535300
      4 C4          -2.2370    -0.3430    -0.0340 cd         1 6T4       0.386600
      5 C5          -2.0410     0.9980    -0.0860 cc         1 6T4      -0.253400
      6 C6          -3.5560    -1.0380    -0.0250 c3         1 6T4      -0.118400
      7 O            2.3360     1.1000    -0.0240 o          1 6T4      -0.575100
      8 N            1.2290    -0.8530     0.0440 ns         1 6T4      -0.538400
      9 S           -0.3570     1.3700    -0.0750 ss         1 6T4      -0.089300
     10 N1          -1.0860    -1.0880     0.0150 nd         1 6T4      -0.713000
     11 H4           3.4950    -1.9710     0.2120 hc         1 6T4       0.068700
     12 H3           4.2000    -0.7500    -0.8540 hc         1 6T4       0.068700
     13 H1           4.2740    -0.5320     0.8870 hc         1 6T4       0.068700
     14 H6          -2.7840     1.7780    -0.1310 h4         1 6T4       0.176000
     15 H7          -3.6740    -1.6380     0.8790 hc         1 6T4       0.048033
     16 H9          -4.3770    -0.3250    -0.0680 hc         1 6T4       0.048033
     17 H8          -3.6460    -1.7150    -0.8760 hc         1 6T4       0.048033
     18 H5           1.2810    -1.8610     0.0870 hn         1 6T4       0.339500
@<TRIPOS>BOND
     1     1     2 1   
     2     1    11 1   
     3     1    12 1   
     4     1    13 1   
     5     2     7 2   
     6     2     8 1   
     7     3     8 1   
     8     3     9 1   
     9     3    10 2   
    10     4     5 2   
    11     4     6 1   
    12     4    10 1   
    13     5     9 1   
    14     5    14 1   
    15     6    15 1   
    16     6    16 1   
    17     6    17 1   
    18     8    18 1   
@<TRIPOS>SUBSTRUCTURE
     1 6T4         1 TEMP              0 ****  ****    0 ROOT
