@<TRIPOS>MOLECULE
6T4
   18    18     1     0     0
SMALL
No Charge or Current Charge


@<TRIPOS>ATOM
      1 C1           3.6550    -0.9610     0.0890 c3         1 6T4      -0.172100
      2 C2           2.4380    -0.0460     0.1140 c          1 6T4       0.605100
      3 C3          -0.0280    -0.1740     0.0240 cc         1 6T4       0.535300
      4 C4          -2.2360    -0.3420    -0.0600 cd         1 6T4       0.321300
      5 C5          -2.1300     1.0240     0.0400 cc         1 6T4      -0.315000
      6 C6          -3.5220    -1.1100    -0.1570 c3         1 6T4      -0.118400
      7 O            2.5440     1.1670     0.2040 o          1 6T4      -0.575100
      8 N            1.2370    -0.6990     0.0280 ns         1 6T4      -0.471400
      9 S           -0.4660     1.5210     0.1300 ss         1 6T4       0.055600
     10 N1          -1.0320    -1.0260    -0.0690 nd         1 6T4      -0.713000
     11 H4           3.5610    -1.7030     0.8900 hc         1 6T4       0.068700
     12 H3           3.6170    -1.5830    -0.8130 hc         1 6T4       0.068700
     13 H1           4.5990    -0.4080     0.1590 hc         1 6T4       0.068700
     14 H6          -2.9180     1.7640     0.0670 h4         1 6T4       0.158000
     15 H7          -3.6230    -1.8110     0.6800 hc         1 6T4       0.048033
     16 H9          -4.3870    -0.4380    -0.1380 hc         1 6T4       0.048033
     17 H8          -3.5640    -1.6860    -1.0890 hc         1 6T4       0.048033
     18 H5           1.2950    -1.7030    -0.0410 hn         1 6T4       0.339500
@<TRIPOS>BOND
     1     1     2 1   
     2     1    11 1   
     3     1    12 1   
     4     1    13 1   
     5     2     7 2   
     6     2     8 1   
     7     3     8 1   
     8     3     9 1   
     9     3    10 2   
    10     4     5 2   
    11     4     6 1   
    12     4    10 1   
    13     5     9 1   
    14     5    14 1   
    15     6    15 1   
    16     6    16 1   
    17     6    17 1   
    18     8    18 1   
@<TRIPOS>SUBSTRUCTURE
     1 6T4         1 TEMP              0 ****  ****    0 ROOT
