@<TRIPOS>MOLECULE
6T5
   34    35     1     0     0
SMALL
bcc


@<TRIPOS>ATOM
      1 O           -3.1760    -2.8740     0.8190 o          1 6T5      -0.600500
      2 C3          -3.1550    -1.6790     0.5670 c          1 6T5       0.836900
      3 N1          -4.3320    -0.9720     0.4620 ns         1 6T5      -0.328900
      4 N2          -4.4340     0.3180     0.1890 nc         1 6T5      -0.383300
      5 C1          -3.3560     0.9910     0.0070 cd         1 6T5       0.186000
      6 C           -3.4610     2.4470    -0.3040 c3         1 6T5      -0.121400
      7 N           -2.0090    -0.9760     0.3760 nc         1 6T5      -0.732100
      8 C2          -2.0750     0.3000     0.1110 cd         1 6T5       0.650900
      9 N3          -0.9720     1.0380    -0.0790 nu         1 6T5      -0.681600
     10 C4           0.3860     0.6900    -0.0510 ca         1 6T5       0.144600
     11 C9           1.2870     1.7190    -0.3270 ca         1 6T5      -0.154000
     12 C8           2.6510     1.4820    -0.3240 ca         1 6T5      -0.102500
     13 C7           3.1670     0.2200    -0.0450 ca         1 6T5      -0.088300
     14 C10          4.6570    -0.0280    -0.0340 c3         1 6T5      -0.013400
     15 C12          5.1480    -0.3920     1.3670 c3         1 6T5      -0.085100
     16 C11          5.0580    -1.0990    -1.0490 c3         1 6T5      -0.085100
     17 C6           2.2560    -0.7950     0.2290 ca         1 6T5      -0.102500
     18 C5           0.8840    -0.5820     0.2300 ca         1 6T5      -0.154000
     19 H1          -5.2090    -1.4520     0.6020 hn         1 6T5       0.362500
     20 H2          -4.5070     2.7400    -0.3410 hc         1 6T5       0.057367
     21 H3          -2.9680     3.0580     0.4560 hc         1 6T5       0.057367
     22 H4          -3.0110     2.6860    -1.2700 hc         1 6T5       0.057367
     23 H5          -1.1290     2.0140    -0.2780 hn         1 6T5       0.445800
     24 H6           0.9200     2.7140    -0.5520 ha         1 6T5       0.152000
     25 H7           3.3240     2.3020    -0.5430 ha         1 6T5       0.133500
     26 H8           5.1440     0.9070    -0.3260 hc         1 6T5       0.047700
     27 H9           4.6940    -1.3220     1.7170 hc         1 6T5       0.035867
     28 H10          6.2300    -0.5310     1.3720 hc         1 6T5       0.035867
     29 H11          4.9080     0.3890     2.0890 hc         1 6T5       0.035867
     30 H12          4.7140    -0.8450    -2.0530 hc         1 6T5       0.035867
     31 H13          6.1430    -1.2070    -1.0830 hc         1 6T5       0.035867
     32 H14          4.6390    -2.0720    -0.7870 hc         1 6T5       0.035867
     33 H15          2.6120    -1.7940     0.4550 ha         1 6T5       0.133500
     34 H16          0.2160    -1.3990     0.4450 ha         1 6T5       0.152000
@<TRIPOS>BOND
     1     1     2 2   
     2     2     3 1   
     3     2     7 1   
     4     3     4 1   
     5     3    19 1   
     6     4     5 2   
     7     5     6 1   
     8     5     8 1   
     9     6    20 1   
    10     6    21 1   
    11     6    22 1   
    12     7     8 2   
    13     8     9 1   
    14     9    10 1   
    15     9    23 1   
    16    10    11 ar  
    17    10    18 ar  
    18    11    12 ar  
    19    11    24 1   
    20    12    13 ar  
    21    12    25 1   
    22    13    14 1   
    23    13    17 ar  
    24    14    15 1   
    25    14    16 1   
    26    14    26 1   
    27    15    27 1   
    28    15    28 1   
    29    15    29 1   
    30    16    30 1   
    31    16    31 1   
    32    16    32 1   
    33    17    18 ar  
    34    17    33 1   
    35    18    34 1   
@<TRIPOS>SUBSTRUCTURE
     1 6T5         1 TEMP              0 ****  ****    0 ROOT
