@<TRIPOS>MOLECULE
6T5
   34    35     1     0     0
SMALL
No Charge or Current Charge


@<TRIPOS>ATOM
      1 O           -3.1320    -2.9430    -0.2400 o          1 6T5      -0.525000
      2 C3          -3.1660    -1.7330    -0.1160 c          1 6T5       0.694400
      3 N1          -4.3440    -1.0580     0.1140 ns         1 6T5      -0.375400
      4 N2          -4.5260     0.2950     0.2690 nc         1 6T5      -0.383300
      5 C1          -3.4140     1.0300     0.1870 cd         1 6T5       0.186000
      6 C           -3.5720     2.5260     0.3450 c3         1 6T5      -0.121400
      7 N           -2.0370    -0.9540    -0.1970 nc         1 6T5      -0.732100
      8 C2          -2.1250     0.3570    -0.0460 cd         1 6T5       0.650900
      9 N3          -0.9570     1.0680    -0.1730 nu         1 6T5      -0.875200
     10 C4           0.4040     0.7380    -0.1430 ca         1 6T5       0.283000
     11 C9           1.3180     1.6200    -0.7430 ca         1 6T5      -0.136000
     12 C8           2.6980     1.3480    -0.7250 ca         1 6T5      -0.084500
     13 C7           3.1880     0.1890    -0.0930 ca         1 6T5      -0.088300
     14 C10          4.6910    -0.1000    -0.0760 c3         1 6T5      -0.013400
     15 C12          5.2510    -0.0960     1.3630 c3         1 6T5      -0.085100
     16 C11          5.0230    -1.4160    -0.8140 c3         1 6T5      -0.085100
     17 C6           2.2740    -0.6870     0.5250 ca         1 6T5      -0.084500
     18 C5           0.8960    -0.4120     0.5040 ca         1 6T5      -0.136000
     19 H1          -5.1630    -1.6640     0.1680 hn         1 6T5       0.476000
     20 H2          -4.5930     2.8000     0.6390 hc         1 6T5       0.057367
     21 H3          -2.8950     2.9130     1.1160 hc         1 6T5       0.057367
     22 H4          -3.3500     3.0450    -0.5950 hc         1 6T5       0.057367
     23 H5          -1.1410     2.0470    -0.3710 hn         1 6T5       0.501000
     24 H6           0.9620     2.5200    -1.2370 ha         1 6T5       0.134000
     25 H7           3.3840     2.0430    -1.2040 ha         1 6T5       0.115500
     26 H8           5.2110     0.7010    -0.6160 hc         1 6T5       0.047700
     27 H9           4.8170    -0.9070     1.9600 hc         1 6T5       0.035867
     28 H10          6.3400    -0.2230     1.3550 hc         1 6T5       0.035867
     29 H11          5.0250     0.8560     1.8600 hc         1 6T5       0.035867
     30 H12          4.6360    -1.3880    -1.8400 hc         1 6T5       0.035867
     31 H13          6.1080    -1.5660    -0.8650 hc         1 6T5       0.035867
     32 H14          4.5820    -2.2800    -0.3030 hc         1 6T5       0.035867
     33 H15          2.6300    -1.5830     1.0300 ha         1 6T5       0.115500
     34 H16          0.2190    -1.0930     1.0090 ha         1 6T5       0.134000
@<TRIPOS>BOND
     1     1     2 2   
     2     2     3 1   
     3     2     7 1   
     4     3     4 1   
     5     3    19 1   
     6     4     5 2   
     7     5     6 1   
     8     5     8 1   
     9     6    20 1   
    10     6    21 1   
    11     6    22 1   
    12     7     8 2   
    13     8     9 1   
    14     9    10 1   
    15     9    23 1   
    16    10    11 ar  
    17    10    18 ar  
    18    11    12 ar  
    19    11    24 1   
    20    12    13 ar  
    21    12    25 1   
    22    13    14 1   
    23    13    17 ar  
    24    14    15 1   
    25    14    16 1   
    26    14    26 1   
    27    15    27 1   
    28    15    28 1   
    29    15    29 1   
    30    16    30 1   
    31    16    31 1   
    32    16    32 1   
    33    17    18 ar  
    34    17    33 1   
    35    18    34 1   
@<TRIPOS>SUBSTRUCTURE
     1 6T5         1 TEMP              0 ****  ****    0 ROOT
