@<TRIPOS>MOLECULE
6T7
   28    29     1     0     0
SMALL
bcc


@<TRIPOS>ATOM
      1 C4           4.7710    -1.6680    -0.1760 ca         1 6T7       0.389200
      2 C5           1.3010     0.6830     0.0680 cc         1 6T7       0.345200
      3 C6          -1.0510     2.1500     0.2070 c          1 6T7       0.664700
      4 N1           0.1780     0.0900     0.3320 nd         1 6T7      -0.392300
      5 C7           0.2080     2.8030    -0.0600 cd         1 6T7      -0.240200
      6 C8           1.3520     2.0940    -0.1320 cc         1 6T7      -0.175600
      7 N2          -0.9390     0.7870     0.4170 n          1 6T7      -0.160800
      8 C9          -2.1410    -0.0130     0.6620 c3         1 6T7       0.121000
      9 C10         -2.7720    -0.4830    -0.6370 c3         1 6T7      -0.233400
     10 C11         -4.0080    -1.3800    -0.4380 c          1 6T7       0.937600
     11 O1          -4.3670    -1.6080     0.7330 o          1 6T7      -0.838300
     12 O2          -4.5450    -1.8050    -1.4800 o          1 6T7      -0.838300
     13 O           -2.1360     2.7170     0.2580 o          1 6T7      -0.611500
     14 C2           2.5020    -0.1650     0.0100 ca         1 6T7      -0.197200
     15 C1           2.5580    -1.3950     0.6640 ca         1 6T7      -0.066000
     16 C3           3.6270     0.2230    -0.7160 ca         1 6T7       0.400200
     17 N            4.7330    -0.5030    -0.8090 nb         1 6T7      -0.677000
     18 C            3.7070    -2.1570     0.5700 ca         1 6T7      -0.250300
     19 H3           5.6880    -2.2410    -0.2630 h4         1 6T7       0.010100
     20 H4           0.1960     3.8760    -0.1990 ha         1 6T7       0.150000
     21 H5           2.2930     2.5910    -0.3240 ha         1 6T7       0.132000
     22 H7          -1.8290    -0.8560     1.2740 h1         1 6T7       0.075700
     23 H6          -2.8360     0.5850     1.2450 h1         1 6T7       0.075700
     24 H9          -3.0620     0.3790    -1.2460 hc         1 6T7       0.033700
     25 H8          -2.0300    -1.0300    -1.2270 hc         1 6T7       0.033700
     26 H1           1.7140    -1.7430     1.2460 ha         1 6T7       0.160000
     27 H2           3.6340     1.1590    -1.2630 h4         1 6T7       0.014100
     28 H            3.7850    -3.1120     1.0710 ha         1 6T7       0.138000
@<TRIPOS>BOND
     1     1    17 ar  
     2     1    18 ar  
     3     1    19 1   
     4     2     4 2   
     5     2     6 1   
     6     2    14 1   
     7     3     5 1   
     8     3     7 1   
     9     3    13 2   
    10     4     7 1   
    11     5     6 2   
    12     5    20 1   
    13     6    21 1   
    14     7     8 1   
    15     8     9 1   
    16     8    22 1   
    17     8    23 1   
    18     9    10 1   
    19     9    24 1   
    20     9    25 1   
    21    10    11 1   
    22    10    12 1   
    23    14    15 ar  
    24    14    16 ar  
    25    15    18 ar  
    26    15    26 1   
    27    16    17 ar  
    28    16    27 1   
    29    18    28 1   
@<TRIPOS>SUBSTRUCTURE
     1 6T7         1 TEMP              0 ****  ****    0 ROOT
