@<TRIPOS>MOLECULE
6T7
   28    29     1     0     0
SMALL
No Charge or Current Charge


@<TRIPOS>ATOM
      1 C4           4.9000    -1.6260     0.0700 ca         1 6T7       0.323900
      2 C5           1.3140     0.6900    -0.0010 cc         1 6T7       0.345200
      3 C6          -1.1000     2.2250    -0.0400 c          1 6T7       0.522200
      4 N1           0.1710     0.0540     0.2900 nd         1 6T7      -0.392300
      5 C7           0.1950     2.8420    -0.3430 cd         1 6T7      -0.290200
      6 C8           1.3590     2.1030    -0.3250 cc         1 6T7      -0.225600
      7 N2          -0.9920     0.8410     0.2560 n          1 6T7      -0.093800
      8 C9          -2.2220     0.0860     0.5920 c3         1 6T7       0.121000
      9 C10         -2.8090    -0.6900    -0.6070 c3         1 6T7      -0.233400
     10 C11         -4.0640    -1.4270    -0.1420 c          1 6T7       0.727000
     11 O1          -3.9320    -2.5480     0.3210 o          1 6T7      -0.733000
     12 O2          -5.1300    -0.8340    -0.1960 o          1 6T7      -0.733000
     13 O           -2.1510     2.8540    -0.0480 o          1 6T7      -0.536000
     14 C2           2.5480    -0.1350     0.0290 ca         1 6T7      -0.131900
     15 C1           2.4980    -1.5190     0.3400 ca         1 6T7      -0.048000
     16 C3           3.8290     0.4070    -0.2460 ca         1 6T7       0.334900
     17 N            4.9770    -0.3120    -0.2280 nb         1 6T7      -0.677000
     18 C            3.6870    -2.2630     0.3580 ca         1 6T7      -0.167000
     19 H3           5.8380    -2.1810     0.0770 h4         1 6T7       0.010100
     20 H4           0.1680     3.9010    -0.5780 ha         1 6T7       0.200000
     21 H5           2.2950     2.5940    -0.5570 ha         1 6T7       0.182000
     22 H7          -1.9860    -0.6240     1.3960 h1         1 6T7       0.075700
     23 H6          -2.9810     0.7700     0.9920 h1         1 6T7       0.075700
     24 H9          -3.0570     0.0650    -1.3640 hc         1 6T7       0.033700
     25 H8          -2.0350    -1.4000    -0.9230 hc         1 6T7       0.033700
     26 H1           1.5600    -2.0230     0.5650 ha         1 6T7       0.142000
     27 H2           3.9740     1.4540    -0.4930 h4         1 6T7       0.014100
     28 H            3.6740    -3.3240     0.5930 ha         1 6T7       0.120000
@<TRIPOS>BOND
     1     1    17 ar  
     2     1    18 ar  
     3     1    19 1   
     4     2     4 2   
     5     2     6 1   
     6     2    14 1   
     7     3     5 1   
     8     3     7 1   
     9     3    13 2   
    10     4     7 1   
    11     5     6 2   
    12     5    20 1   
    13     6    21 1   
    14     7     8 1   
    15     8     9 1   
    16     8    22 1   
    17     8    23 1   
    18     9    10 1   
    19     9    24 1   
    20     9    25 1   
    21    10    11 1   
    22    10    12 1   
    23    14    15 ar  
    24    14    16 ar  
    25    15    18 ar  
    26    15    26 1   
    27    16    17 ar  
    28    16    27 1   
    29    18    28 1   
@<TRIPOS>SUBSTRUCTURE
     1 6T7         1 TEMP              0 ****  ****    0 ROOT
