@<TRIPOS>MOLECULE
6T9
   48    50     1     0     0
SMALL
No Charge or Current Charge


@<TRIPOS>ATOM
      1 C1          -4.8630     1.9990    -0.8910 c6         1 6T9       0.113600
      2 C2          -4.2080     0.6090    -0.8610 c6         1 6T9       0.125000
      3 O3          -3.9020     2.9980    -0.4880 os         1 6T9      -0.467600
      4 C4          -3.0420     2.7230     0.5280 c2         1 6T9       0.822500
      5 N5          -2.8240     1.5690     1.0230 n2         1 6T9      -0.770900
      6 C6          -3.5320     0.3500     0.5350 c6         1 6T9       0.209500
      7 C7          -2.5330    -0.8560     0.4410 ca         1 6T9      -0.085300
      8 C8          -1.1360    -0.6210     0.3380 ca         1 6T9      -0.104000
      9 C9          -0.2040    -1.6720     0.2370 ca         1 6T9      -0.037000
     10 C10         -0.6690    -3.0010     0.2230 ca         1 6T9      -0.102000
     11 C11         -2.0450    -3.2600     0.2990 ca         1 6T9      -0.135000
     12 C12         -2.9680    -2.2080     0.4000 ca         1 6T9       0.155000
     13 F13         -4.2770    -2.5370     0.4350 f          1 6T9      -0.180000
     14 N14         -2.4210     3.8290     0.9330 nv         1 6T9      -1.011200
     15 C15         -4.6010     0.1180     1.6580 c3         1 6T9      -0.091100
     16 N16          1.1730    -1.3200     0.1460 ns         1 6T9      -0.126000
     17 C17          2.3400    -2.0740     0.0490 c          1 6T9       0.521600
     18 C18          3.6210    -1.2400    -0.0290 ca         1 6T9       0.242500
     19 O19          2.3530    -3.3040     0.0270 o          1 6T9      -0.592100
     20 N20          3.5340     0.1260     0.0010 nb         1 6T9      -0.647000
     21 C21          4.6790     0.8510    -0.0700 ca         1 6T9       0.250900
     22 C22          5.9660     0.2630    -0.1720 ca         1 6T9       0.122100
     23 C23          6.0560    -1.1360    -0.2020 ca         1 6T9      -0.130000
     24 C24          4.8720    -1.8930    -0.1290 ca         1 6T9      -0.061000
     25 O25          7.1340     1.0000    -0.2430 os         1 6T9      -0.338100
     26 F26         -5.1730    -0.3690    -1.1650 f          1 6T9      -0.098500
     27 F27         -3.2430     0.5430    -1.8880 f          1 6T9      -0.098500
     28 C28          7.1240     2.4370    -0.2190 c3         1 6T9       0.163600
     29 C29          8.5820     2.9120    -0.3160 c3         1 6T9      -0.096100
     30 H11C        -5.2340     2.2330    -1.8990 h1         1 6T9       0.082700
     31 H12C        -5.7170     2.0240    -0.1990 h1         1 6T9       0.082700
     32 H141        -2.9790     4.6480     0.7410 hn         1 6T9       0.485000
     33 H142        -2.1080     3.7420     1.8890 hn         1 6T9       0.485000
     34 H151        -5.3600    -0.6220     1.3870 hc         1 6T9       0.053367
     35 H152        -4.1270    -0.2220     2.5870 hc         1 6T9       0.053367
     36 H153        -5.1510     1.0370     1.8950 hc         1 6T9       0.053367
     37 H8          -0.7530     0.3960     0.3290 ha         1 6T9       0.138000
     38 H10          0.0110    -3.8440     0.1440 ha         1 6T9       0.152000
     39 H16          1.3460    -0.3210     0.1540 hn         1 6T9       0.182000
     40 H11         -2.4030    -4.2860     0.2730 ha         1 6T9       0.132000
     41 H24          4.9230    -2.9790    -0.1510 ha         1 6T9       0.151000
     42 H21          4.5490     1.9320    -0.0420 h4         1 6T9       0.025100
     43 H23          7.0240    -1.6250    -0.2790 ha         1 6T9       0.139000
     44 H281         6.5520     2.8380    -1.0660 h1         1 6T9       0.038700
     45 H282         6.6800     2.8080     0.7140 h1         1 6T9       0.038700
     46 H291         8.6270     4.0070    -0.3010 hc         1 6T9       0.051033
     47 H292         9.1690     2.5320     0.5290 hc         1 6T9       0.051033
     48 H293         9.0410     2.5610    -1.2480 hc         1 6T9       0.051033
@<TRIPOS>BOND
     1     1     2 1   
     2     1     3 1   
     3     1    30 1   
     4     1    31 1   
     5     2     6 1   
     6     2    26 1   
     7     2    27 1   
     8     3     4 1   
     9     4     5 2   
    10     4    14 1   
    11     5     6 1   
    12     6     7 1   
    13     6    15 1   
    14     7     8 ar  
    15     7    12 ar  
    16     8     9 ar  
    17     8    37 1   
    18     9    10 ar  
    19     9    16 1   
    20    10    11 ar  
    21    10    38 1   
    22    11    12 ar  
    23    11    40 1   
    24    12    13 1   
    25    14    32 1   
    26    14    33 1   
    27    15    34 1   
    28    15    35 1   
    29    15    36 1   
    30    16    17 1   
    31    16    39 1   
    32    17    18 1   
    33    17    19 2   
    34    18    20 ar  
    35    18    24 ar  
    36    20    21 ar  
    37    21    22 ar  
    38    21    42 1   
    39    22    23 ar  
    40    22    25 1   
    41    23    24 ar  
    42    23    43 1   
    43    24    41 1   
    44    25    28 1   
    45    28    29 1   
    46    28    44 1   
    47    28    45 1   
    48    29    46 1   
    49    29    47 1   
    50    29    48 1   
@<TRIPOS>SUBSTRUCTURE
     1 6T9         1 TEMP              0 ****  ****    0 ROOT
