@<TRIPOS>MOLECULE
6T9
   48    50     1     0     0
SMALL
abcg2


@<TRIPOS>ATOM
      1 C1          -4.8040     1.9470    -0.7910 c6         1 6T9       0.113600
      2 C2          -4.1900     0.5660    -0.7340 c6         1 6T9       0.125000
      3 O3          -3.8000     2.9250    -0.6060 os         1 6T9      -0.467600
      4 C4          -2.8610     2.6350     0.3150 c2         1 6T9       0.822500
      5 N5          -2.6710     1.5220     0.8960 n2         1 6T9      -0.770900
      6 C6          -3.4490     0.3410     0.5910 c6         1 6T9       0.209500
      7 C7          -2.4890    -0.8470     0.4480 ca         1 6T9      -0.085300
      8 C8          -1.1240    -0.6140     0.3560 ca         1 6T9      -0.104000
      9 C9          -0.1860    -1.6360     0.2140 ca         1 6T9      -0.037000
     10 C10         -0.6270    -2.9560     0.1620 ca         1 6T9      -0.102000
     11 C11         -1.9860    -3.2120     0.2480 ca         1 6T9      -0.135000
     12 C12         -2.8890    -2.1780     0.3820 ca         1 6T9       0.155000
     13 F13         -4.1900    -2.5150     0.4460 f          1 6T9      -0.180000
     14 N14         -2.0510     3.7030     0.5240 nv         1 6T9      -1.011200
     15 C15         -4.4300     0.1380     1.7540 c3         1 6T9      -0.091100
     16 N16          1.1520    -1.2460     0.1330 ns         1 6T9      -0.126000
     17 C17          2.2570    -2.0080    -0.0080 c          1 6T9       0.521600
     18 C18          3.5250    -1.2160    -0.0640 ca         1 6T9       0.242500
     19 O19          2.2680    -3.2260    -0.0870 o          1 6T9      -0.592100
     20 N20          3.4390     0.1010     0.0520 nb         1 6T9      -0.647000
     21 C21          4.5340     0.8400     0.0070 ca         1 6T9       0.250900
     22 C22          5.8050     0.2800    -0.1640 ca         1 6T9       0.122100
     23 C23          5.8950    -1.1070    -0.2870 ca         1 6T9      -0.130000
     24 C24          4.7440    -1.8640    -0.2350 ca         1 6T9      -0.061000
     25 O25          6.9410     0.9750    -0.2190 os         1 6T9      -0.338100
     26 F26         -5.1690    -0.3490    -0.9500 f          1 6T9      -0.098500
     27 F27         -3.3110     0.4390    -1.7700 f          1 6T9      -0.098500
     28 C28          6.8980     2.3960    -0.0830 c3         1 6T9       0.163600
     29 C29          8.3120     2.9140    -0.1820 c3         1 6T9      -0.096100
     30 H11C        -5.2550     2.1280    -1.7680 h1         1 6T9       0.082700
     31 H12C        -5.5820     2.0460    -0.0300 h1         1 6T9       0.082700
     32 H141        -2.4450     4.6220     0.3990 hn         1 6T9       0.485000
     33 H142        -1.4230     3.6220     1.3060 hn         1 6T9       0.485000
     34 H151        -5.0680    -0.7330     1.6480 hc         1 6T9       0.053367
     35 H152        -3.8570     0.0340     2.6750 hc         1 6T9       0.053367
     36 H153        -5.0710     1.0130     1.8700 hc         1 6T9       0.053367
     37 H8          -0.7820     0.4120     0.4090 ha         1 6T9       0.138000
     38 H10          0.0600    -3.7790     0.0570 ha         1 6T9       0.152000
     39 H16          1.3320    -0.2500     0.1810 hn         1 6T9       0.182000
     40 H11         -2.3470    -4.2310     0.2070 ha         1 6T9       0.132000
     41 H24          4.7920    -2.9400    -0.3270 ha         1 6T9       0.151000
     42 H21          4.3930     1.9090     0.1100 h4         1 6T9       0.025100
     43 H23          6.8610    -1.5750    -0.4220 ha         1 6T9       0.139000
     44 H281         6.2740     2.8280    -0.8720 h1         1 6T9       0.038700
     45 H282         6.4540     2.6630     0.8810 h1         1 6T9       0.038700
     46 H291         8.3050     3.9980    -0.0750 hc         1 6T9       0.051033
     47 H292         8.9430     2.5040     0.6070 hc         1 6T9       0.051033
     48 H293         8.7570     2.6750    -1.1470 hc         1 6T9       0.051033
@<TRIPOS>BOND
     1     1     2 1   
     2     1     3 1   
     3     1    30 1   
     4     1    31 1   
     5     2     6 1   
     6     2    26 1   
     7     2    27 1   
     8     3     4 1   
     9     4     5 2   
    10     4    14 1   
    11     5     6 1   
    12     6     7 1   
    13     6    15 1   
    14     7     8 ar  
    15     7    12 ar  
    16     8     9 ar  
    17     8    37 1   
    18     9    10 ar  
    19     9    16 1   
    20    10    11 ar  
    21    10    38 1   
    22    11    12 ar  
    23    11    40 1   
    24    12    13 1   
    25    14    32 1   
    26    14    33 1   
    27    15    34 1   
    28    15    35 1   
    29    15    36 1   
    30    16    17 1   
    31    16    39 1   
    32    17    18 1   
    33    17    19 2   
    34    18    20 ar  
    35    18    24 ar  
    36    20    21 ar  
    37    21    22 ar  
    38    21    42 1   
    39    22    23 ar  
    40    22    25 1   
    41    23    24 ar  
    42    23    43 1   
    43    24    41 1   
    44    25    28 1   
    45    28    29 1   
    46    28    44 1   
    47    28    45 1   
    48    29    46 1   
    49    29    47 1   
    50    29    48 1   
@<TRIPOS>SUBSTRUCTURE
     1 6T9         1 TEMP              0 ****  ****    0 ROOT
