@<TRIPOS>MOLECULE
6TA
   58    61     1     0     0
SMALL
No Charge or Current Charge


@<TRIPOS>ATOM
      1 C4           9.4180    -0.9970    51.0260 c3         1 6TA      -0.107100
      2 C6           7.6560    -3.7880    49.3660 c          1 6TA       0.654100
      3 C10          8.1330    -6.5840    46.7530 c6         1 6TA      -0.068900
      4 C13          9.5420    -4.1680    47.7220 c6         1 6TA       0.112000
      5 C15          9.8530    -6.6740    44.7190 cx         1 6TA      -0.151700
      6 C21         10.6960    -8.2190    40.1650 c5         1 6TA       0.153300
      7 C22         10.9390    -8.7780    38.7900 ca         1 6TA      -0.068300
      8 C24         11.6970    -8.9060    36.5060 ca         1 6TA       0.336900
      9 C26         10.5660   -10.7240    37.4180 ca         1 6TA       0.355900
     10 C28          9.7630   -10.5450    39.8930 c5         1 6TA       0.177300
     11 C1           6.9670    -0.9980    50.3830 c3         1 6TA      -0.107100
     12 C2           8.1560    -1.8720    50.8600 c3         1 6TA       0.219000
     13 C3           7.8640    -2.6310    52.1810 c3         1 6TA      -0.107100
     14 O5           8.5140    -2.8160    49.8240 os         1 6TA      -0.485100
     15 O7           6.5170    -3.9750    49.7690 o          1 6TA      -0.557000
     16 N8           8.2450    -4.5730    48.3540 n          1 6TA      -0.411800
     17 C9           7.3820    -5.5070    47.5690 c6         1 6TA       0.112000
     18 C11          9.2900    -5.9840    45.9440 cx         1 6TA      -0.098000
     19 C12         10.2490    -5.2700    46.9010 c6         1 6TA      -0.068900
     20 C14          9.0290    -5.4080    44.5710 cx         1 6TA      -0.118400
     21 N17          9.7430    -8.2230    42.8290 ns         1 6TA      -0.513900
     22 C18          9.4930    -9.3640    42.1130 c          1 6TA       0.659100
     23 O19          8.8990   -10.3170    42.5920 o          1 6TA      -0.649100
     24 N20          9.9630    -9.3660    40.7960 n          1 6TA      -0.447800
     25 C23         11.5930    -8.1740    37.7060 ca         1 6TA      -0.144000
     26 N25         11.1950   -10.1610    36.3550 nb         1 6TA      -0.659000
     27 C27         10.4290   -10.0480    38.6410 ca         1 6TA      -0.152300
     28 H1           9.2650    -0.2320    51.7970 hc         1 6TA       0.050033
     29 H2          10.2800    -1.6070    51.3200 hc         1 6TA       0.050033
     30 H3           9.6650    -0.4870    50.0870 hc         1 6TA       0.050033
     31 H4           7.4170    -7.0960    46.0980 hc         1 6TA       0.053450
     32 H5           8.5320    -7.3470    47.4350 hc         1 6TA       0.053450
     33 H6          10.2460    -3.8250    48.4940 h1         1 6TA       0.061450
     34 H7           9.3450    -3.3100    47.0630 h1         1 6TA       0.061450
     35 H8          10.9270    -6.5780    44.5700 hc         1 6TA       0.069700
     36 H10         10.0810    -7.3100    40.1250 h1         1 6TA       0.055200
     37 H11         12.1960    -8.4770    35.6380 h4         1 6TA       0.023100
     38 H12         10.1690   -11.7300    37.2820 h4         1 6TA       0.027100
     39 H13          8.6980   -10.7570    39.7290 h1         1 6TA       0.070200
     40 H14         10.2540   -11.4460    40.2830 h1         1 6TA       0.070200
     41 H15          6.8370    -0.1360    51.0480 hc         1 6TA       0.050033
     42 H16          7.1450    -0.6190    49.3700 hc         1 6TA       0.050033
     43 H17          6.0230    -1.5530    50.3850 hc         1 6TA       0.050033
     44 H18          7.8220    -1.9300    53.0220 hc         1 6TA       0.050033
     45 H19          6.9030    -3.1550    52.1490 hc         1 6TA       0.050033
     46 H20          8.6520    -3.3650    52.3900 hc         1 6TA       0.050033
     47 H21          6.7770    -4.9040    46.8760 h1         1 6TA       0.061450
     48 H22          6.6790    -6.0140    48.2450 h1         1 6TA       0.061450
     49 H23         10.6830    -6.0110    47.5860 hc         1 6TA       0.053450
     50 H24         11.0900    -4.8330    46.3470 hc         1 6TA       0.053450
     51 H25          9.5490    -4.4960    44.2900 hc         1 6TA       0.079700
     52 H26          8.0240    -5.4980    44.1630 hc         1 6TA       0.079700
     53 H29         10.2360    -7.4800    42.3560 hn         1 6TA       0.300500
     54 H30         12.0100    -7.1730    37.7810 ha         1 6TA       0.127000
     55 C16          9.3310    -8.0140    44.2130 c3         1 6TA       0.140000
     56 H9          11.6410    -8.0010    40.6820 h1         1 6TA       0.055200
     57 H27          8.2350    -8.0500    44.2610 h1         1 6TA       0.065700
     58 H28          9.7340    -8.8240    44.8360 h1         1 6TA       0.065700
@<TRIPOS>BOND
     1     1    12 1   
     2     1    28 1   
     3     1    29 1   
     4     1    30 1   
     5     2    14 1   
     6     2    15 2   
     7     2    16 1   
     8     3    17 1   
     9     3    18 1   
    10     3    31 1   
    11     3    32 1   
    12     4    16 1   
    13     4    19 1   
    14     4    33 1   
    15     4    34 1   
    16     5    18 1   
    17     5    20 1   
    18     5    35 1   
    19     5    55 1   
    20     6     7 1   
    21     6    24 1   
    22     6    36 1   
    23     6    56 1   
    24     7    25 ar  
    25     7    27 ar  
    26     8    25 ar  
    27     8    26 ar  
    28     8    37 1   
    29     9    26 ar  
    30     9    27 ar  
    31     9    38 1   
    32    10    24 1   
    33    10    27 1   
    34    10    39 1   
    35    10    40 1   
    36    11    12 1   
    37    11    41 1   
    38    11    42 1   
    39    11    43 1   
    40    12    13 1   
    41    12    14 1   
    42    13    44 1   
    43    13    45 1   
    44    13    46 1   
    45    16    17 1   
    46    17    47 1   
    47    17    48 1   
    48    18    19 1   
    49    18    20 1   
    50    19    49 1   
    51    19    50 1   
    52    20    51 1   
    53    20    52 1   
    54    21    22 1   
    55    21    53 1   
    56    21    55 1   
    57    22    23 2   
    58    22    24 1   
    59    25    54 1   
    60    55    57 1   
    61    55    58 1   
@<TRIPOS>SUBSTRUCTURE
     1 6TA         1 TEMP              0 ****  ****    0 ROOT
