@<TRIPOS>MOLECULE
6TA
   58    61     1     0     0
SMALL
abcg2


@<TRIPOS>ATOM
      1 C4           9.1490    -1.0900    50.7250 c3         1 6TA      -0.107100
      2 C6           7.5690    -3.9120    49.0510 c          1 6TA       0.654100
      3 C10          8.2110    -6.3040    46.6200 c6         1 6TA      -0.068900
      4 C13          8.5630    -3.4090    46.8120 c6         1 6TA       0.112000
      5 C15          9.9750    -6.3000    44.6630 cx         1 6TA      -0.151700
      6 C21         11.3740    -8.8220    40.6830 c5         1 6TA       0.153300
      7 C22         11.3290    -9.2740    39.2550 ca         1 6TA      -0.068300
      8 C24         12.0100    -9.8310    37.0550 ca         1 6TA       0.336900
      9 C26          9.7940   -10.0730    37.6050 ca         1 6TA       0.355900
     10 C28          9.0870    -9.4480    40.0430 c5         1 6TA       0.177300
     11 C1           6.8480    -1.9310    51.2420 c3         1 6TA      -0.107100
     12 C2           8.2570    -2.3230    50.8120 c3         1 6TA       0.219000
     13 C3           8.8810    -3.3650    51.7340 c3         1 6TA      -0.107100
     14 O5           8.2510    -2.8100    49.4230 os         1 6TA      -0.485100
     15 O7           6.8960    -4.5990    49.8120 o          1 6TA      -0.557000
     16 N8           7.7090    -4.1660    47.7260 n          1 6TA      -0.411800
     17 C9           7.1210    -5.3680    47.1450 c6         1 6TA       0.112000
     18 C11          9.1250    -5.5640    45.6620 cx         1 6TA      -0.098000
     19 C12          9.6860    -4.2970    46.2780 c6         1 6TA      -0.068900
     20 C14          8.7580    -5.5350    44.1980 cx         1 6TA      -0.118400
     21 N17         10.4130    -8.2940    43.2720 ns         1 6TA      -0.513900
     22 C18          9.4940    -8.6970    42.3460 c          1 6TA       0.659100
     23 O19          8.2940    -8.8580    42.6140 o          1 6TA      -0.649100
     24 N20          9.9750    -8.9500    41.0980 n          1 6TA      -0.447800
     25 C23         12.3490    -9.3730    38.3250 ca         1 6TA      -0.144000
     26 N25         10.7680   -10.1750    36.6930 nb         1 6TA      -0.659000
     27 C27         10.0350    -9.6280    38.8950 ca         1 6TA      -0.152300
     28 H1           9.2330    -0.6280    51.7100 hc         1 6TA       0.050033
     29 H2          10.1480    -1.3630    50.3830 hc         1 6TA       0.050033
     30 H3           8.7280    -0.3600    50.0330 hc         1 6TA       0.050033
     31 H4           7.7350    -7.1580    46.1380 hc         1 6TA       0.053450
     32 H5           8.7910    -6.6830    47.4680 hc         1 6TA       0.053450
     33 H6           8.9570    -2.5390    47.3240 h1         1 6TA       0.061450
     34 H7           7.9430    -3.0630    45.9780 h1         1 6TA       0.061450
     35 H8          10.9290    -5.8270    44.4490 hc         1 6TA       0.069700
     36 H10         11.7310    -7.7890    40.7660 h1         1 6TA       0.055200
     37 H11         12.7750    -9.9250    36.2920 h4         1 6TA       0.023100
     38 H12          8.7960   -10.3580    37.2880 h4         1 6TA       0.027100
     39 H13          8.2930    -8.7300    39.8190 h1         1 6TA       0.070200
     40 H14          8.6080   -10.3860    40.3370 h1         1 6TA       0.070200
     41 H15          6.8960    -1.4420    52.2160 hc         1 6TA       0.050033
     42 H16          6.4190    -1.2250    50.5270 hc         1 6TA       0.050033
     43 H17          6.1990    -2.8000    51.3160 hc         1 6TA       0.050033
     44 H18          9.0130    -2.9290    52.7260 hc         1 6TA       0.050033
     45 H19          8.2520    -4.2480    51.8200 hc         1 6TA       0.050033
     46 H20          9.8620    -3.6620    51.3580 hc         1 6TA       0.050033
     47 H21          6.4670    -5.0680    46.3190 h1         1 6TA       0.061450
     48 H22          6.5150    -5.8560    47.9020 h1         1 6TA       0.061450
     49 H23         10.3580    -4.5550    47.1030 hc         1 6TA       0.053450
     50 H24         10.2680    -3.7400    45.5400 hc         1 6TA       0.053450
     51 H25          8.9090    -4.6150    43.6470 hc         1 6TA       0.079700
     52 H26          7.8980    -6.1130    43.8870 hc         1 6TA       0.079700
     53 H29         11.3430    -8.0650    42.9640 hn         1 6TA       0.300500
     54 H30         13.3720    -9.1090    38.5600 ha         1 6TA       0.127000
     55 C16         10.0280    -7.8070    44.5900 c3         1 6TA       0.140000
     56 H9          12.0370    -9.4540    41.2840 h1         1 6TA       0.055200
     57 H27          9.0630    -8.2480    44.8240 h1         1 6TA       0.065700
     58 H28         10.7520    -8.1880    45.3140 h1         1 6TA       0.065700
@<TRIPOS>BOND
     1     1    12 1   
     2     1    28 1   
     3     1    29 1   
     4     1    30 1   
     5     2    14 1   
     6     2    15 2   
     7     2    16 1   
     8     3    17 1   
     9     3    18 1   
    10     3    31 1   
    11     3    32 1   
    12     4    16 1   
    13     4    19 1   
    14     4    33 1   
    15     4    34 1   
    16     5    18 1   
    17     5    20 1   
    18     5    35 1   
    19     5    55 1   
    20     6     7 1   
    21     6    24 1   
    22     6    36 1   
    23     6    56 1   
    24     7    25 ar  
    25     7    27 ar  
    26     8    25 ar  
    27     8    26 ar  
    28     8    37 1   
    29     9    26 ar  
    30     9    27 ar  
    31     9    38 1   
    32    10    24 1   
    33    10    27 1   
    34    10    39 1   
    35    10    40 1   
    36    11    12 1   
    37    11    41 1   
    38    11    42 1   
    39    11    43 1   
    40    12    13 1   
    41    12    14 1   
    42    13    44 1   
    43    13    45 1   
    44    13    46 1   
    45    16    17 1   
    46    17    47 1   
    47    17    48 1   
    48    18    19 1   
    49    18    20 1   
    50    19    49 1   
    51    19    50 1   
    52    20    51 1   
    53    20    52 1   
    54    21    22 1   
    55    21    53 1   
    56    21    55 1   
    57    22    23 2   
    58    22    24 1   
    59    25    54 1   
    60    55    57 1   
    61    55    58 1   
@<TRIPOS>SUBSTRUCTURE
     1 6TA         1 TEMP              0 ****  ****    0 ROOT
