@<TRIPOS>MOLECULE
6TB
   80    84     1     0     0
SMALL
No Charge or Current Charge


@<TRIPOS>ATOM
      1 C10         -1.1170    -1.2510    -0.0840 ca         1 6TB       0.142100
      2 C13         -0.7170    -0.1230     0.6880 ca         1 6TB       0.275000
      3 C15          0.9080     0.0740     2.5720 c3         1 6TB       0.233100
      4 C20          5.8900     0.8470     1.3380 c5         1 6TB       0.255500
      5 C21          5.3890     0.3510     2.7370 c5         1 6TB      -0.090900
      6 C22          5.2340     1.6790     3.5200 c5         1 6TB      -0.077400
      7 C24          5.3800     2.3290     1.2120 c5         1 6TB      -0.090900
      8 C26          7.5860    -1.0820    -0.3590 c3         1 6TB      -0.079400
      9 C28          6.0840    -0.0000    -2.1870 c          1 6TB       0.550000
     10 N02        -10.0140     0.9600     0.3160 n3         1 6TB      -0.719600
     11 C03         -9.2980     1.8360    -0.6490 c6         1 6TB       0.168800
     12 C04         -7.7720     1.8190    -0.3990 c6         1 6TB      -0.091900
     13 C05         -7.2170     0.3790    -0.4720 c6         1 6TB       0.113700
     14 N06         -5.7790     0.3690    -0.1720 ns         1 6TB      -0.499900
     15 C07         -4.8840    -0.6050    -0.5580 c          1 6TB       0.612700
     16 C08         -3.4410    -0.4210    -0.1130 ca         1 6TB      -0.108600
     17 C09         -2.4710    -1.3840    -0.4760 ca         1 6TB      -0.150000
     18 O11         -0.1700    -2.2120    -0.4190 os         1 6TB      -0.331100
     19 C12         -0.4790    -3.3670    -1.2180 c3         1 6TB       0.145900
     20 N14          0.6280     0.0740     1.1140 nh         1 6TB      -0.796100
     21 C16          1.6940     0.1990     0.1840 ca         1 6TB       0.408900
     22 N17          2.9450     0.0540     0.6580 nb         1 6TB      -0.284000
     23 C18          3.9540     0.1980    -0.2140 ca         1 6TB       0.397900
     24 N19          5.2800    -0.0120     0.2500 nh         1 6TB      -0.794300
     25 C23          4.4940     2.5430     2.4720 c5         1 6TB      -0.077400
     26 C25          6.1250    -0.7120    -0.7910 c6         1 6TB       0.179500
     27 N29          4.8140     0.5300    -2.5290 n          1 6TB      -0.192400
     28 C30          4.6470     1.2240    -3.8270 c3         1 6TB       0.084300
     29 O31          7.0610     0.0920    -2.9290 o          1 6TB      -0.548000
     30 C32          3.7230     0.5320    -1.5710 ca         1 6TB      -0.260000
     31 C33          2.3750     0.5900    -1.9760 ca         1 6TB       0.138900
     32 N34          1.3650     0.4550    -1.1000 nb         1 6TB      -0.236000
     33 C35         -1.6870     0.8280     1.0540 ca         1 6TB      -0.079000
     34 C36         -3.0280     0.6880     0.6610 ca         1 6TB      -0.126000
     35 O37         -5.2440    -1.5650    -1.2270 o          1 6TB      -0.610100
     36 C38         -7.9940    -0.5090     0.5290 c6         1 6TB      -0.091900
     37 C39         -9.5160    -0.4410     0.2600 c6         1 6TB       0.168800
     38 H151         1.3980     1.0090     2.8730 h1         1 6TB       0.042700
     39 H153        -0.0230    -0.0140     3.1480 h1         1 6TB       0.042700
     40 H152         1.5470    -0.7760     2.8470 h1         1 6TB       0.042700
     41 H201         6.9860     0.8530     1.3120 h1         1 6TB       0.053700
     42 H211         4.4420    -0.1940     2.7020 hc         1 6TB       0.054700
     43 H212         6.1100    -0.3180     3.2170 hc         1 6TB       0.054700
     44 H222         4.6570     1.5540     4.4430 hc         1 6TB       0.042700
     45 H221         6.2060     2.1090     3.7920 hc         1 6TB       0.042700
     46 H242         6.2380     3.0110     1.2390 hc         1 6TB       0.054700
     47 H241         4.8510     2.5590     0.2810 hc         1 6TB       0.054700
     48 H262         8.0930    -1.5570    -1.2080 hc         1 6TB       0.066700
     49 H261         8.1730    -0.1820    -0.1440 hc         1 6TB       0.066700
     50 H011       -11.7970     0.6750    -0.8220 h1         1 6TB       0.030700
     51 H013       -11.9850     0.4340     0.9320 h1         1 6TB       0.030700
     52 H012       -11.8290     2.0770     0.2760 h1         1 6TB       0.030700
     53 H031        -9.6580     2.8720    -0.5630 h1         1 6TB       0.033700
     54 H041        -7.2710     2.4530    -1.1430 hc         1 6TB       0.053700
     55 H042        -7.5600     2.2590     0.5850 hc         1 6TB       0.053700
     56 H051        -7.3680    -0.0080    -1.4910 h1         1 6TB       0.072700
     57 H061        -5.4040     1.1300     0.3770 hn         1 6TB       0.315500
     58 H091        -2.7870    -2.2400    -1.0650 ha         1 6TB       0.143000
     59 H122        -1.2370    -3.9910    -0.7270 h1         1 6TB       0.044367
     60 H123        -0.8510    -3.0690    -2.2070 h1         1 6TB       0.044367
     61 H121         0.4200    -3.9780    -1.3640 h1         1 6TB       0.044367
     62 H232         3.4660     2.1980     2.3130 hc         1 6TB       0.042700
     63 H231         4.4380     3.5980     2.7640 hc         1 6TB       0.042700
     64 H251         5.6360    -1.6770    -0.9930 h1         1 6TB       0.065700
     65 H273         8.7460    -2.3320     1.0040 hc         1 6TB       0.037700
     66 H271         7.2840    -1.6530     1.7390 hc         1 6TB       0.037700
     67 H272         7.1540    -3.0020     0.5940 hc         1 6TB       0.037700
     68 H302         5.5850     1.6990    -4.1380 h1         1 6TB       0.049367
     69 H303         4.3380     0.5010    -4.5920 h1         1 6TB       0.049367
     70 H301         3.8840     2.0080    -3.7420 h1         1 6TB       0.049367
     71 H331         2.0900     0.7510    -3.0140 h4         1 6TB       0.022100
     72 H351        -1.3910     1.6920     1.6430 ha         1 6TB       0.126000
     73 H361        -3.7320     1.4570     0.9690 ha         1 6TB       0.114000
     74 H381        -7.6560    -1.5500     0.4520 hc         1 6TB       0.053700
     75 H382        -7.7900    -0.1860     1.5580 hc         1 6TB       0.053700
     76 H391       -10.0330    -1.0600     1.0080 h1         1 6TB       0.033700
     77 H392        -9.7270    -0.8810    -0.7260 h1         1 6TB       0.033700
     78 C27          7.6960    -2.0760     0.8190 c3         1 6TB      -0.094100
     79 H032        -9.4970     1.5090    -1.6810 h1         1 6TB       0.033700
     80 C01        -11.4840     1.0400     0.1660 c3         1 6TB       0.153100
@<TRIPOS>BOND
     1     1     2 ar  
     2     1    17 ar  
     3     1    18 1   
     4     2    20 1   
     5     2    33 ar  
     6     3    20 1   
     7     3    38 1   
     8     3    39 1   
     9     3    40 1   
    10     4     5 1   
    11     4     7 1   
    12     4    24 1   
    13     4    41 1   
    14     5     6 1   
    15     5    42 1   
    16     5    43 1   
    17     6    25 1   
    18     6    44 1   
    19     6    45 1   
    20     7    25 1   
    21     7    46 1   
    22     7    47 1   
    23     8    26 1   
    24     8    48 1   
    25     8    49 1   
    26     8    78 1   
    27     9    26 1   
    28     9    27 1   
    29     9    29 2   
    30    10    11 1   
    31    10    37 1   
    32    10    80 1   
    33    11    12 1   
    34    11    53 1   
    35    11    79 1   
    36    12    13 1   
    37    12    54 1   
    38    12    55 1   
    39    13    14 1   
    40    13    36 1   
    41    13    56 1   
    42    14    15 1   
    43    14    57 1   
    44    15    16 1   
    45    15    35 2   
    46    16    17 ar  
    47    16    34 ar  
    48    17    58 1   
    49    18    19 1   
    50    19    59 1   
    51    19    60 1   
    52    19    61 1   
    53    20    21 1   
    54    21    22 ar  
    55    21    32 ar  
    56    22    23 ar  
    57    23    24 1   
    58    23    30 ar  
    59    24    26 1   
    60    25    62 1   
    61    25    63 1   
    62    26    64 1   
    63    27    28 1   
    64    27    30 1   
    65    28    68 1   
    66    28    69 1   
    67    28    70 1   
    68    30    31 ar  
    69    31    32 ar  
    70    31    71 1   
    71    33    34 ar  
    72    33    72 1   
    73    34    73 1   
    74    36    37 1   
    75    36    74 1   
    76    36    75 1   
    77    37    76 1   
    78    37    77 1   
    79    50    80 1   
    80    51    80 1   
    81    52    80 1   
    82    65    78 1   
    83    66    78 1   
    84    67    78 1   
@<TRIPOS>SUBSTRUCTURE
     1 6TB         1 TEMP              0 ****  ****    0 ROOT
