@<TRIPOS>MOLECULE
6TB
   80    84     1     0     0
SMALL
abcg2


@<TRIPOS>ATOM
      1 C10         -1.0920    -1.2080     0.4650 ca         1 6TB       0.142100
      2 C13         -0.6910     0.0330     0.9870 ca         1 6TB       0.275000
      3 C15          1.0950     0.0800     2.6730 c3         1 6TB       0.233100
      4 C20          5.6150     0.6480     1.2810 c5         1 6TB       0.255500
      5 C21          5.2900    -0.2880     2.4590 c5         1 6TB      -0.090900
      6 C22          5.4820     0.6180     3.6690 c5         1 6TB      -0.077400
      7 C24          5.1830     2.0660     1.7430 c5         1 6TB      -0.090900
      8 C26          7.4000    -0.4270    -0.8490 c3         1 6TB      -0.079400
      9 C28          5.6670     0.5420    -2.3940 c          1 6TB       0.550000
     10 N02         -9.7410     1.1710    -0.3440 n3         1 6TB      -0.719600
     11 C03         -8.9610     1.3220    -1.5560 c6         1 6TB       0.168800
     12 C04         -7.4730     1.4030    -1.2540 c6         1 6TB      -0.091900
     13 C05         -7.0190     0.1780    -0.4700 c6         1 6TB       0.113700
     14 N06         -5.6120     0.3000    -0.1430 ns         1 6TB      -0.499900
     15 C07         -4.8040    -0.7490     0.0660 c          1 6TB       0.612700
     16 C08         -3.3810    -0.4310     0.4130 ca         1 6TB      -0.108600
     17 C09         -2.4330    -1.4270     0.1790 ca         1 6TB      -0.150000
     18 O11         -0.1210    -2.1110     0.2840 os         1 6TB      -0.331100
     19 C12         -0.4500    -3.3580    -0.2950 c3         1 6TB       0.145900
     20 N14          0.6650     0.2690     1.3010 nh         1 6TB      -0.796100
     21 C16          1.5840     0.3160     0.2920 ca         1 6TB       0.408900
     22 N17          2.8660     0.2900     0.6470 nb         1 6TB      -0.284000
     23 C18          3.7750     0.3500    -0.3140 ca         1 6TB       0.397900
     24 N19          5.0990     0.2820    -0.0320 nh         1 6TB      -0.794300
     25 C23          4.8330     1.9320     3.2310 c5         1 6TB      -0.077400
     26 C25          5.9100    -0.2760    -1.1230 c6         1 6TB       0.179500
     27 N29          4.3590     0.8120    -2.6270 n          1 6TB      -0.192400
     28 C30          3.9430     1.4990    -3.8350 c3         1 6TB       0.084300
     29 O31          6.5590     0.8850    -3.1500 o          1 6TB      -0.548000
     30 C32          3.3920     0.5050    -1.6620 ca         1 6TB      -0.260000
     31 C33          2.0360     0.5010    -1.9110 ca         1 6TB       0.138900
     32 N34          1.1220     0.3960    -0.9520 nb         1 6TB      -0.236000
     33 C35         -1.6430     1.0020     1.2400 ca         1 6TB      -0.079000
     34 C36         -2.9860     0.7820     0.9640 ca         1 6TB      -0.126000
     35 O37         -5.1810    -1.9090    -0.0410 o          1 6TB      -0.610100
     36 C38         -7.8930     0.0060     0.7690 c6         1 6TB      -0.091900
     37 C39         -9.3640    -0.0250     0.3850 c6         1 6TB       0.168800
     38 H151         1.8350     0.8250     2.9560 h1         1 6TB       0.042700
     39 H153         0.2340     0.1890     3.3260 h1         1 6TB       0.042700
     40 H152         1.5310    -0.9090     2.8370 h1         1 6TB       0.042700
     41 H201         6.6980     0.6700     1.1770 h1         1 6TB       0.053700
     42 H211         4.2560    -0.6260     2.4050 hc         1 6TB       0.054700
     43 H212         5.9330    -1.1690     2.4790 hc         1 6TB       0.054700
     44 H222         5.0440     0.2100     4.5810 hc         1 6TB       0.042700
     45 H221         6.5490     0.7690     3.8610 hc         1 6TB       0.042700
     46 H242         6.0080     2.7630     1.5900 hc         1 6TB       0.054700
     47 H241         4.3400     2.4440     1.1660 hc         1 6TB       0.054700
     48 H262         7.8620    -0.6380    -1.8130 hc         1 6TB       0.066700
     49 H261         7.8390     0.5160    -0.5170 hc         1 6TB       0.066700
     50 H011       -11.4900     0.3720    -1.2760 h1         1 6TB       0.030700
     51 H013       -11.7260     1.1320     0.3050 h1         1 6TB       0.030700
     52 H012       -11.4280     2.1340    -1.1130 h1         1 6TB       0.030700
     53 H031        -9.2770     2.2360    -2.0640 h1         1 6TB       0.033700
     54 H041        -6.9150     1.4810    -2.1900 hc         1 6TB       0.053700
     55 H042        -7.2680     2.3090    -0.6750 hc         1 6TB       0.053700
     56 H051        -7.1380    -0.7040    -1.1070 h1         1 6TB       0.072700
     57 H061        -5.2390     1.2330    -0.0710 hn         1 6TB       0.315500
     58 H091        -2.7680    -2.3720    -0.2250 ha         1 6TB       0.143000
     59 H122        -1.1510    -3.9240     0.3240 h1         1 6TB       0.044367
     60 H123        -0.8760    -3.2430    -1.2950 h1         1 6TB       0.044367
     61 H121         0.4790    -3.9170    -0.3730 h1         1 6TB       0.044367
     62 H232         3.7500     1.8570     3.3470 hc         1 6TB       0.042700
     63 H231         5.1640     2.7870     3.8220 hc         1 6TB       0.042700
     64 H251         5.5300    -1.2870    -1.3400 h1         1 6TB       0.065700
     65 H273         8.8380    -1.7160     0.1070 hc         1 6TB       0.037700
     66 H271         7.4420    -1.4000     1.1190 hc         1 6TB       0.037700
     67 H272         7.3020    -2.5030    -0.2410 hc         1 6TB       0.037700
     68 H302         4.8180     1.8500    -4.3710 h1         1 6TB       0.049367
     69 H303         3.3780     0.8360    -4.4900 h1         1 6TB       0.049367
     70 H301         3.3190     2.3560    -3.5820 h1         1 6TB       0.049367
     71 H331         1.6570     0.6190    -2.9200 h4         1 6TB       0.022100
     72 H351        -1.3230     1.9480     1.6600 ha         1 6TB       0.126000
     73 H361        -3.6980     1.5620     1.1970 ha         1 6TB       0.114000
     74 H381        -7.6320    -0.9180     1.2890 hc         1 6TB       0.053700
     75 H382        -7.7120     0.8350     1.4590 hc         1 6TB       0.053700
     76 H391        -9.9770    -0.0900     1.2870 h1         1 6TB       0.033700
     77 H392        -9.5730    -0.9400    -0.2000 h1         1 6TB       0.033700
     78 C27          7.7580    -1.5690     0.0930 c3         1 6TB      -0.094100
     79 H032        -9.1420     0.4910    -2.2630 h1         1 6TB       0.033700
     80 C01        -11.1580     1.1960    -0.6240 c3         1 6TB       0.153100
@<TRIPOS>BOND
     1     1     2 ar  
     2     1    17 ar  
     3     1    18 1   
     4     2    20 1   
     5     2    33 ar  
     6     3    20 1   
     7     3    38 1   
     8     3    39 1   
     9     3    40 1   
    10     4     5 1   
    11     4     7 1   
    12     4    24 1   
    13     4    41 1   
    14     5     6 1   
    15     5    42 1   
    16     5    43 1   
    17     6    25 1   
    18     6    44 1   
    19     6    45 1   
    20     7    25 1   
    21     7    46 1   
    22     7    47 1   
    23     8    26 1   
    24     8    48 1   
    25     8    49 1   
    26     8    78 1   
    27     9    26 1   
    28     9    27 1   
    29     9    29 2   
    30    10    11 1   
    31    10    37 1   
    32    10    80 1   
    33    11    12 1   
    34    11    53 1   
    35    11    79 1   
    36    12    13 1   
    37    12    54 1   
    38    12    55 1   
    39    13    14 1   
    40    13    36 1   
    41    13    56 1   
    42    14    15 1   
    43    14    57 1   
    44    15    16 1   
    45    15    35 2   
    46    16    17 ar  
    47    16    34 ar  
    48    17    58 1   
    49    18    19 1   
    50    19    59 1   
    51    19    60 1   
    52    19    61 1   
    53    20    21 1   
    54    21    22 ar  
    55    21    32 ar  
    56    22    23 ar  
    57    23    24 1   
    58    23    30 ar  
    59    24    26 1   
    60    25    62 1   
    61    25    63 1   
    62    26    64 1   
    63    27    28 1   
    64    27    30 1   
    65    28    68 1   
    66    28    69 1   
    67    28    70 1   
    68    30    31 ar  
    69    31    32 ar  
    70    31    71 1   
    71    33    34 ar  
    72    33    72 1   
    73    34    73 1   
    74    36    37 1   
    75    36    74 1   
    76    36    75 1   
    77    37    76 1   
    78    37    77 1   
    79    50    80 1   
    80    51    80 1   
    81    52    80 1   
    82    65    78 1   
    83    66    78 1   
    84    67    78 1   
@<TRIPOS>SUBSTRUCTURE
     1 6TB         1 TEMP              0 ****  ****    0 ROOT
