@<TRIPOS>MOLECULE
6TC
   72    76     1     0     0
SMALL
bcc


@<TRIPOS>ATOM
      1 C26         -6.5410    -2.2870     1.4290 ca         1 6TC      -0.115000
      2 C25         -6.2610    -1.4470     0.3610 ca         1 6TC      -0.132000
      3 C27         -5.7770    -3.4320     1.6260 ca         1 6TC      -0.132000
      4 C31         -2.1480    -0.2100    -1.9760 ca         1 6TC      -0.106000
      5 C24         -5.2180    -1.7490    -0.5060 ca         1 6TC      -0.102500
      6 C28         -4.7380    -3.7320     0.7580 ca         1 6TC      -0.102500
      7 C7           4.2500     1.3520     0.8490 ca         1 6TC      -0.077500
      8 C39          4.0300    -0.7800     1.8880 ca         1 6TC      -0.077500
      9 C6           5.6160     1.1480     0.6790 ca         1 6TC      -0.196000
     10 C40          5.3830    -1.0020     1.7260 ca         1 6TC      -0.196000
     11 C32         -2.6140     1.0270    -2.3640 ca         1 6TC      -0.107000
     12 C36         -3.1210     2.7730     0.8230 cc         1 6TC      -0.115200
     13 C38         -2.2960     0.3980     0.3600 ca         1 6TC      -0.053000
     14 C19         -0.4050    -3.5640     0.6590 cc         1 6TC       0.354200
     15 C35         -3.5130     3.8490     0.1070 cd         1 6TC      -0.106400
     16 C37         -2.7640     1.6610    -0.0100 ca         1 6TC      -0.083800
     17 C30         -1.9910    -0.5330    -0.6160 ca         1 6TC      -0.038000
     18 C18         -0.3820    -2.1590     0.5870 cc         1 6TC      -0.322900
     19 C23         -4.4510    -2.8920    -0.3150 ca         1 6TC      -0.125300
     20 C8           3.4350     0.4040     1.4480 ca         1 6TC      -0.154300
     21 C5           6.1950    -0.0390     1.1170 ca         1 6TC       0.158100
     22 C33         -2.9160     1.9600    -1.3750 ca         1 6TC      -0.040100
     23 C29         -1.4620    -1.8400    -0.2180 cd         1 6TC      -0.004300
     24 C16          0.5350    -1.3040     1.3740 c          1 6TC       0.718700
     25 C13          0.7890     1.4110    -2.6300 c          1 6TC       0.674100
     26 C1           9.7960     0.0930     0.7140 c3         1 6TC      -0.108100
     27 C3           8.1980     0.2820    -1.2200 c3         1 6TC      -0.108100
     28 C22         -3.3030    -3.2060    -1.2380 c3         1 6TC       0.102600
     29 C9           1.9560     0.6400     1.6100 c3         1 6TC       0.143300
     30 C12          0.8840     1.3150    -1.1220 c3         1 6TC      -0.182400
     31 C11          1.2850    -0.0780    -0.6510 c3         1 6TC       0.116000
     32 C2           8.3970     0.4800     0.2740 c3         1 6TC       0.156100
     33 N20         -1.3910    -4.0640    -0.0530 nd         1 6TC      -0.522800
     34 N21         -2.0220    -3.0140    -0.5790 na         1 6TC       0.121400
     35 N14          0.3170     2.5830    -3.0850 nt         1 6TC      -0.677000
     36 N10          1.1390    -0.2440     0.7860 n          1 6TC      -0.470800
     37 O17          0.7090    -1.5880     2.5550 o          1 6TC      -0.606100
     38 O15          1.1480     0.5080    -3.3710 o          1 6TC      -0.608100
     39 O4           7.5030    -0.3470     1.0240 os         1 6TC      -0.331900
     40 S34         -3.4780     3.5810    -1.6030 ss         1 6TC      -0.078500
     41 H1          -7.3530    -2.0540     2.1070 ha         1 6TC       0.132000
     42 H2          -6.8510    -0.5540     0.2020 ha         1 6TC       0.134000
     43 H3          -5.9940    -4.0940     2.4540 ha         1 6TC       0.134000
     44 H4          -1.8770    -0.9320    -2.7360 ha         1 6TC       0.147000
     45 H5          -5.0020    -1.0850    -1.3350 ha         1 6TC       0.138000
     46 H6          -4.1470    -4.6270     0.9160 ha         1 6TC       0.138000
     47 H7           3.8240     2.2850     0.5000 ha         1 6TC       0.134500
     48 H8           3.4290    -1.5400     2.3710 ha         1 6TC       0.134500
     49 H9           6.1980     1.9260     0.2050 ha         1 6TC       0.139500
     50 H10          5.8290    -1.9240     2.0780 ha         1 6TC       0.139500
     51 H11         -2.7210     1.2690    -3.4130 ha         1 6TC       0.145000
     52 H12         -3.0790     2.7540     1.9030 ha         1 6TC       0.162000
     53 H13         -2.1810     0.1500     1.4080 ha         1 6TC       0.155000
     54 H14          0.2820    -4.2130     1.1820 h4         1 6TC       0.050100
     55 H15         -3.8300     4.8090     0.4850 h4         1 6TC       0.170000
     56 H16         10.5300     0.7040     0.1910 hc         1 6TC       0.046533
     57 H17          9.9320     0.2490     1.7840 hc         1 6TC       0.046533
     58 H18         10.0040    -0.9540     0.4850 hc         1 6TC       0.046533
     59 H19          8.8850     0.9250    -1.7710 hc         1 6TC       0.046533
     60 H20          8.4020    -0.7510    -1.5040 hc         1 6TC       0.046533
     61 H21          7.1880     0.5320    -1.5440 hc         1 6TC       0.046533
     62 H22         -3.3270    -4.2440    -1.5660 h1         1 6TC       0.075200
     63 H23         -3.3450    -2.5820    -2.1290 h1         1 6TC       0.075200
     64 H24          1.6570     0.5120     2.6480 h1         1 6TC       0.061200
     65 H25          1.7200     1.6720     1.3420 h1         1 6TC       0.061200
     66 H26          1.6130     2.0630    -0.7970 hc         1 6TC       0.065200
     67 H27         -0.0650     1.6110    -0.6690 hc         1 6TC       0.065200
     68 H28          0.6920    -0.8320    -1.1590 h1         1 6TC       0.068200
     69 H29          2.3270    -0.2730    -0.9230 h1         1 6TC       0.068200
     70 H30          8.2320     1.5310     0.5330 h1         1 6TC       0.040700
     71 H31         -0.0550     3.2800    -2.4630 hn         1 6TC       0.312500
     72 H32          0.1800     2.7270    -4.0720 hn         1 6TC       0.312500
@<TRIPOS>BOND
     1     1     2 ar  
     2     1     3 ar  
     3     1    41 1   
     4     2     5 ar  
     5     2    42 1   
     6     3     6 ar  
     7     3    43 1   
     8     4    11 ar  
     9     4    17 ar  
    10     4    44 1   
    11     5    19 ar  
    12     5    45 1   
    13     6    19 ar  
    14     6    46 1   
    15     7     9 ar  
    16     7    20 ar  
    17     7    47 1   
    18     8    10 ar  
    19     8    20 ar  
    20     8    48 1   
    21     9    21 ar  
    22     9    49 1   
    23    10    21 ar  
    24    10    50 1   
    25    11    22 ar  
    26    11    51 1   
    27    12    15 2   
    28    12    16 1   
    29    12    52 1   
    30    13    16 ar  
    31    13    17 ar  
    32    13    53 1   
    33    14    18 1   
    34    14    33 2   
    35    14    54 1   
    36    15    40 1   
    37    15    55 1   
    38    16    22 ar  
    39    17    23 1   
    40    18    23 2   
    41    18    24 1   
    42    19    28 1   
    43    20    29 1   
    44    21    39 1   
    45    22    40 1   
    46    23    34 1   
    47    24    36 1   
    48    24    37 2   
    49    25    30 1   
    50    25    35 1   
    51    25    38 2   
    52    26    32 1   
    53    26    56 1   
    54    26    57 1   
    55    26    58 1   
    56    27    32 1   
    57    27    59 1   
    58    27    60 1   
    59    27    61 1   
    60    28    34 1   
    61    28    62 1   
    62    28    63 1   
    63    29    36 1   
    64    29    64 1   
    65    29    65 1   
    66    30    31 1   
    67    30    66 1   
    68    30    67 1   
    69    31    36 1   
    70    31    68 1   
    71    31    69 1   
    72    32    39 1   
    73    32    70 1   
    74    33    34 1   
    75    35    71 1   
    76    35    72 1   
@<TRIPOS>SUBSTRUCTURE
     1 6TC         1 TEMP              0 ****  ****    0 ROOT
