@<TRIPOS>MOLECULE
6TC
   72    76     1     0     0
SMALL
No Charge or Current Charge


@<TRIPOS>ATOM
      1 C26         -6.7530    -1.0240     0.3140 ca         1 6TC      -0.097000
      2 C25         -6.5940    -1.2690    -1.0590 ca         1 6TC      -0.114000
      3 C27         -5.8610    -1.5960     1.2350 ca         1 6TC      -0.114000
      4 C31         -2.5470    -0.4740    -1.5680 ca         1 6TC      -0.088000
      5 C24         -5.5400    -2.0810    -1.5130 ca         1 6TC      -0.084500
      6 C28         -4.8070    -2.4090     0.7840 ca         1 6TC      -0.084500
      7 C7           4.1330     1.3410     1.3190 ca         1 6TC      -0.059500
      8 C39          4.1140    -1.0870     1.4240 ca         1 6TC      -0.059500
      9 C6           5.5100     1.3200     1.0380 ca         1 6TC      -0.178000
     10 C40          5.4900    -1.1060     1.1430 ca         1 6TC      -0.178000
     11 C32         -3.0000     0.8360    -1.8130 ca         1 6TC      -0.089000
     12 C36         -2.2000     2.6050     1.3020 cc         1 6TC      -0.165200
     13 C38         -1.8230     0.1780     0.6640 ca         1 6TC      -0.035000
     14 C19         -0.6800    -4.0130     0.9530 cc         1 6TC       0.288900
     15 C35         -2.7270     3.7520     0.7310 cd         1 6TC      -0.156400
     16 C37         -2.2690     1.4810     0.3990 ca         1 6TC      -0.083800
     17 C30         -1.9500    -0.8210    -0.3290 ca         1 6TC      -0.038000
     18 C18         -0.4910    -2.6400     0.7820 cc         1 6TC      -0.257600
     19 C23         -4.6340    -2.6520    -0.5960 ca         1 6TC      -0.125300
     20 C8           3.4230     0.1380     1.5050 ca         1 6TC      -0.154300
     21 C5           6.1950     0.0900     0.9400 ca         1 6TC       0.158100
     22 C33         -2.8410     1.8020    -0.8130 ca         1 6TC      -0.167000
     23 C29         -1.4850    -2.2050    -0.0690 cd         1 6TC      -0.055000
     24 C16          0.6060    -1.9250     1.4820 c          1 6TC       0.651700
     25 C13          1.1910     0.9820    -2.5470 c          1 6TC       0.607100
     26 C1           9.8210     0.6860     0.3910 c3         1 6TC      -0.108100
     27 C3           7.9890     1.4340    -1.2320 c3         1 6TC      -0.108100
     28 C22         -3.4790    -3.5180    -1.1090 c3         1 6TC       0.131900
     29 C9           1.9240     0.1750     1.8060 c3         1 6TC       0.143300
     30 C12          1.2460     0.9330    -1.0260 c3         1 6TC      -0.182400
     31 C11          1.2410    -0.5310    -0.5330 c3         1 6TC       0.116000
     32 C2           8.3490     1.1130     0.2360 c3         1 6TC       0.179300
     33 N20         -1.6910    -4.5090     0.2790 nd         1 6TC      -0.522800
     34 N21         -2.2110    -3.3880    -0.3560 na         1 6TC       0.142800
     35 N14         -0.0150     1.2450    -3.0880 nt         1 6TC      -0.610000
     36 N10          1.0870    -0.7030     0.9430 n          1 6TC      -0.403800
     37 O17          1.0970    -2.3980     2.5000 o          1 6TC      -0.606100
     38 O15          2.1650     0.8080    -3.2580 o          1 6TC      -0.608100
     39 O4           7.5480    -0.0010     0.6730 os         1 6TC      -0.355100
     40 S34         -3.3330     3.5040    -0.9330 ss         1 6TC       0.048400
     41 H1          -7.5680    -0.3930     0.6650 ha         1 6TC       0.114000
     42 H2          -7.2850    -0.8280    -1.7740 ha         1 6TC       0.116000
     43 H3          -5.9840    -1.4090     2.3000 ha         1 6TC       0.116000
     44 H4          -2.6360    -1.2100    -2.3600 ha         1 6TC       0.129000
     45 H5          -5.4250    -2.2600    -2.5800 ha         1 6TC       0.120000
     46 H6          -4.1240    -2.8450     1.5110 ha         1 6TC       0.120000
     47 H7           3.6170     2.2970     1.3900 ha         1 6TC       0.116500
     48 H8           3.5870    -2.0260     1.5750 ha         1 6TC       0.116500
     49 H9           6.0250     2.2660     0.9050 ha         1 6TC       0.121500
     50 H10          6.0150    -2.0560     1.0800 ha         1 6TC       0.121500
     51 H11         -3.4550     1.0940    -2.7670 ha         1 6TC       0.127000
     52 H12         -1.7870     2.5710     2.3080 ha         1 6TC       0.212000
     53 H13         -1.4060    -0.0560     1.6390 ha         1 6TC       0.137000
     54 H14         -0.0870    -4.6840     1.5610 h4         1 6TC       0.050100
     55 H15         -2.8020     4.7370     1.1810 h4         1 6TC       0.220000
     56 H16         10.4900     1.4930     0.0710 hc         1 6TC       0.046533
     57 H17         10.0440     0.4550     1.4400 hc         1 6TC       0.046533
     58 H18         10.0370    -0.2020    -0.2140 hc         1 6TC       0.046533
     59 H19          8.6290     2.2380    -1.6150 hc         1 6TC       0.046533
     60 H20          8.1300     0.5520    -1.8690 hc         1 6TC       0.046533
     61 H21          6.9480     1.7620    -1.3250 hc         1 6TC       0.046533
     62 H22         -3.7970    -4.5670    -1.0670 h1         1 6TC       0.075200
     63 H23         -3.2770    -3.2960    -2.1620 h1         1 6TC       0.075200
     64 H24          1.7730    -0.0810     2.8620 h1         1 6TC       0.061200
     65 H25          1.5570     1.2040     1.6960 h1         1 6TC       0.061200
     66 H26          2.1630     1.4290    -0.6940 hc         1 6TC       0.065200
     67 H27          0.3680     1.4380    -0.6100 hc         1 6TC       0.065200
     68 H28          0.4680    -1.0800    -1.0770 h1         1 6TC       0.068200
     69 H29          2.1940    -0.9930    -0.8260 h1         1 6TC       0.068200
     70 H30          8.1840     1.9950     0.8670 h1         1 6TC       0.040700
     71 H31         -0.8160     1.3830    -2.4880 hn         1 6TC       0.312500
     72 H32         -0.1070     1.2940    -4.0910 hn         1 6TC       0.312500
@<TRIPOS>BOND
     1     1     2 ar  
     2     1     3 ar  
     3     1    41 1   
     4     2     5 ar  
     5     2    42 1   
     6     3     6 ar  
     7     3    43 1   
     8     4    11 ar  
     9     4    17 ar  
    10     4    44 1   
    11     5    19 ar  
    12     5    45 1   
    13     6    19 ar  
    14     6    46 1   
    15     7     9 ar  
    16     7    20 ar  
    17     7    47 1   
    18     8    10 ar  
    19     8    20 ar  
    20     8    48 1   
    21     9    21 ar  
    22     9    49 1   
    23    10    21 ar  
    24    10    50 1   
    25    11    22 ar  
    26    11    51 1   
    27    12    15 2   
    28    12    16 1   
    29    12    52 1   
    30    13    16 ar  
    31    13    17 ar  
    32    13    53 1   
    33    14    18 1   
    34    14    33 2   
    35    14    54 1   
    36    15    40 1   
    37    15    55 1   
    38    16    22 ar  
    39    17    23 1   
    40    18    23 2   
    41    18    24 1   
    42    19    28 1   
    43    20    29 1   
    44    21    39 1   
    45    22    40 1   
    46    23    34 1   
    47    24    36 1   
    48    24    37 2   
    49    25    30 1   
    50    25    35 1   
    51    25    38 2   
    52    26    32 1   
    53    26    56 1   
    54    26    57 1   
    55    26    58 1   
    56    27    32 1   
    57    27    59 1   
    58    27    60 1   
    59    27    61 1   
    60    28    34 1   
    61    28    62 1   
    62    28    63 1   
    63    29    36 1   
    64    29    64 1   
    65    29    65 1   
    66    30    31 1   
    67    30    66 1   
    68    30    67 1   
    69    31    36 1   
    70    31    68 1   
    71    31    69 1   
    72    32    39 1   
    73    32    70 1   
    74    33    34 1   
    75    35    71 1   
    76    35    72 1   
@<TRIPOS>SUBSTRUCTURE
     1 6TC         1 TEMP              0 ****  ****    0 ROOT
