@<TRIPOS>MOLECULE
6TD
   41    45     1     0     0
SMALL
bcc


@<TRIPOS>ATOM
      1 CAA          3.9430     4.3100     1.1300 c3         1 6TD       0.124700
      2 OAP          4.5460     3.0400     1.2680 os         1 6TD      -0.316900
      3 CAS          4.0990     2.0300     0.4990 ca         1 6TD       0.147100
      4 CAG          4.7270     0.7930     0.6740 ca         1 6TD      -0.192500
      5 CAE          4.3280    -0.3000    -0.0700 ca         1 6TD      -0.073500
      6 CAF          3.0730     2.1450    -0.4350 ca         1 6TD      -0.192500
      7 CAD          2.6860     1.0320    -1.1750 ca         1 6TD      -0.073500
      8 CAR          3.3010    -0.1990    -1.0090 ca         1 6TD      -0.136300
      9 CAK          2.8580    -1.4130    -1.7900 c3         1 6TD      -0.045400
     10 CAU          2.0070    -2.3070    -0.9650 cc         1 6TD       0.443800
     11 NAL          2.3070    -3.4820    -0.4810 nd         1 6TD      -0.355000
     12 NAM          1.2680    -3.9580     0.2680 nd         1 6TD      -0.298000
     13 CAY          0.3520    -3.0420     0.2170 cc         1 6TD       0.392900
     14 SAQ         -1.2400    -2.7240     0.8020 ss         1 6TD      -0.204800
     15 NAZ          0.7570    -1.9920    -0.5370 na         1 6TD      -0.128200
     16 NAN         -0.0700    -0.9520    -0.7070 nc         1 6TD      -0.415800
     17 CAV         -1.1620    -1.1830    -0.0640 cd         1 6TD       0.514200
     18 CAT         -2.2640    -0.2570    -0.0470 cd         1 6TD      -0.159900
     19 CAJ         -2.3520     0.9520    -0.6930 cc         1 6TD      -0.101200
     20 CAW         -3.6270     1.4900    -0.3800 ca         1 6TD      -0.119800
     21 CAH         -4.2970     2.6720    -0.7320 ca         1 6TD      -0.066000
     22 CAB         -5.5650     2.8840    -0.2390 ca         1 6TD      -0.160000
     23 CAC         -6.1860     1.9410     0.6030 ca         1 6TD      -0.093000
     24 CAI         -5.5550     0.7710     0.9680 ca         1 6TD      -0.151000
     25 CAX         -4.2710     0.5570     0.4660 ca         1 6TD      -0.025200
     26 NAO         -3.4220    -0.4900     0.6500 na         1 6TD      -0.162400
     27 H1           2.8760     4.2840     1.3670 h1         1 6TD       0.040700
     28 H2           4.4410     4.9690     1.8370 h1         1 6TD       0.040700
     29 H3           4.0690     4.7150     0.1230 h1         1 6TD       0.040700
     30 H4           5.5290     0.7010     1.3950 ha         1 6TD       0.141000
     31 H5           4.8260    -1.2500     0.0810 ha         1 6TD       0.136500
     32 H6           2.5650     3.0850    -0.6020 ha         1 6TD       0.141000
     33 H7           1.8810     1.1380    -1.8920 ha         1 6TD       0.136500
     34 H8           2.3070    -1.1080    -2.6830 hc         1 6TD       0.076700
     35 H9           3.7170    -1.9940    -2.1260 hc         1 6TD       0.076700
     36 H10         -1.5910     1.3930    -1.3160 ha         1 6TD       0.169000
     37 H11         -3.8230     3.3990    -1.3790 ha         1 6TD       0.137000
     38 H12         -6.0990     3.7880    -0.5010 ha         1 6TD       0.133000
     39 H13         -7.1840     2.1410     0.9720 ha         1 6TD       0.132000
     40 H14         -6.0360     0.0500     1.6160 ha         1 6TD       0.137000
     41 H15         -3.6300    -1.2960     1.2180 hn         1 6TD       0.305700
@<TRIPOS>BOND
     1     1     2 1   
     2     1    27 1   
     3     1    28 1   
     4     1    29 1   
     5     2     3 1   
     6     3     4 ar  
     7     3     6 ar  
     8     4     5 ar  
     9     4    30 1   
    10     5     8 ar  
    11     5    31 1   
    12     6     7 ar  
    13     6    32 1   
    14     7     8 ar  
    15     7    33 1   
    16     8     9 1   
    17     9    10 1   
    18     9    34 1   
    19     9    35 1   
    20    10    11 2   
    21    10    15 1   
    22    11    12 1   
    23    12    13 2   
    24    13    14 1   
    25    13    15 1   
    26    14    17 1   
    27    15    16 1   
    28    16    17 2   
    29    17    18 1   
    30    18    19 2   
    31    18    26 1   
    32    19    20 1   
    33    19    36 1   
    34    20    21 ar  
    35    20    25 ar  
    36    21    22 ar  
    37    21    37 1   
    38    22    23 ar  
    39    22    38 1   
    40    23    24 ar  
    41    23    39 1   
    42    24    25 ar  
    43    24    40 1   
    44    25    26 1   
    45    26    41 1   
@<TRIPOS>SUBSTRUCTURE
     1 6TD         1 TEMP              0 ****  ****    0 ROOT
