@<TRIPOS>MOLECULE
6TD
   41    45     1     0     0
SMALL
No Charge or Current Charge


@<TRIPOS>ATOM
      1 CAA          4.1100     4.3990     1.2570 c3         1 6TD       0.147900
      2 OAP          4.7540     3.1130     1.2240 os         1 6TD      -0.340100
      3 CAS          4.2550     2.0590     0.4840 ca         1 6TD       0.147100
      4 CAG          4.9550     0.8440     0.5190 ca         1 6TD      -0.174500
      5 CAE          4.4960    -0.2650    -0.2120 ca         1 6TD      -0.055500
      6 CAF          3.0810     2.1620    -0.2930 ca         1 6TD      -0.174500
      7 CAD          2.6220     1.0530    -1.0250 ca         1 6TD      -0.055500
      8 CAR          3.3270    -0.1650    -0.9890 ca         1 6TD      -0.136300
      9 CAK          2.8200    -1.3720    -1.7730 c3         1 6TD      -0.045400
     10 CAU          1.9530    -2.2860    -0.9490 cc         1 6TD       0.443800
     11 NAL          2.3520    -3.3570    -0.2480 nd         1 6TD      -0.355000
     12 NAM          1.2610    -3.8500     0.4820 nd         1 6TD      -0.298000
     13 CAY          0.2340    -3.1170     0.1030 cc         1 6TD       0.392900
     14 SAQ         -1.2740    -2.8080     0.8610 ss         1 6TD      -0.204800
     15 NAZ          0.6090    -2.1480    -0.7180 na         1 6TD      -0.128200
     16 NAN         -0.1870    -1.0420    -0.8720 nc         1 6TD      -0.415800
     17 CAV         -1.2710    -1.3130    -0.1240 cd         1 6TD       0.514200
     18 CAT         -2.3880    -0.4000    -0.0670 cd         1 6TD      -0.159900
     19 CAJ         -2.4610     0.7960    -0.7750 cc         1 6TD      -0.151200
     20 CAW         -3.7230     1.3780    -0.4270 ca         1 6TD      -0.119800
     21 CAH         -4.3120     2.5780    -0.8460 ca         1 6TD      -0.048000
     22 CAB         -5.5850     2.9010    -0.3300 ca         1 6TD      -0.142000
     23 CAC         -6.2310     2.0290     0.5800 ca         1 6TD      -0.075000
     24 CAI         -5.6080     0.8280     0.9810 ca         1 6TD      -0.133000
     25 CAX         -4.3440     0.5290     0.4540 ca         1 6TD      -0.025200
     26 NAO         -3.5590    -0.5860     0.7100 na         1 6TD      -0.212700
     27 H1           3.0900     4.3150     1.6530 h1         1 6TD       0.040700
     28 H2           4.6700     5.0870     1.9020 h1         1 6TD       0.040700
     29 H3           4.0630     4.8380     0.2520 h1         1 6TD       0.040700
     30 H4           5.8590     0.7600     1.1180 ha         1 6TD       0.123000
     31 H5           5.0480    -1.2030    -0.1710 ha         1 6TD       0.118500
     32 H6           2.5140     3.0870    -0.3400 ha         1 6TD       0.123000
     33 H7           1.7130     1.1420    -1.6170 ha         1 6TD       0.118500
     34 H8           2.2540    -1.0430    -2.6520 hc         1 6TD       0.076700
     35 H9           3.6670    -1.9450    -2.1680 hc         1 6TD       0.076700
     36 H10         -1.7070     1.1960    -1.4510 ha         1 6TD       0.219000
     37 H11         -3.8050     3.2390    -1.5460 ha         1 6TD       0.119000
     38 H12         -6.0730     3.8240    -0.6330 ha         1 6TD       0.115000
     39 H13         -7.2120     2.2870     0.9730 ha         1 6TD       0.114000
     40 H14         -6.0970     0.1530     1.6800 ha         1 6TD       0.119000
     41 H15         -3.7810    -1.3650     1.3240 hn         1 6TD       0.356000
@<TRIPOS>BOND
     1     1     2 1   
     2     1    27 1   
     3     1    28 1   
     4     1    29 1   
     5     2     3 1   
     6     3     4 ar  
     7     3     6 ar  
     8     4     5 ar  
     9     4    30 1   
    10     5     8 ar  
    11     5    31 1   
    12     6     7 ar  
    13     6    32 1   
    14     7     8 ar  
    15     7    33 1   
    16     8     9 1   
    17     9    10 1   
    18     9    34 1   
    19     9    35 1   
    20    10    11 2   
    21    10    15 1   
    22    11    12 1   
    23    12    13 2   
    24    13    14 1   
    25    13    15 1   
    26    14    17 1   
    27    15    16 1   
    28    16    17 2   
    29    17    18 1   
    30    18    19 2   
    31    18    26 1   
    32    19    20 1   
    33    19    36 1   
    34    20    21 ar  
    35    20    25 ar  
    36    21    22 ar  
    37    21    37 1   
    38    22    23 ar  
    39    22    38 1   
    40    23    24 ar  
    41    23    39 1   
    42    24    25 ar  
    43    24    40 1   
    44    25    26 1   
    45    26    41 1   
@<TRIPOS>SUBSTRUCTURE
     1 6TD         1 TEMP              0 ****  ****    0 ROOT
