@<TRIPOS>MOLECULE
6TE
   37    39     1     0     0
SMALL
No Charge or Current Charge


@<TRIPOS>ATOM
      1 N3           2.0910    -1.0340    -1.8410 nb         1 6TE      -0.308000
      2 C4          -2.1030     0.3450    -0.6350 cy         1 6TE       0.180500
      3 N2          -3.0480     0.1340     0.4370 n7         1 6TE      -0.854300
      4 C7           2.2110     0.0240    -1.0110 ca         1 6TE       0.431900
      5 C6          -5.0500    -0.9810     1.7960 c3         1 6TE      -0.383100
      6 C9           4.1770    -0.9710    -0.0390 ca         1 6TE       0.142500
      7 C8           3.0250    -2.0080    -1.7230 ca         1 6TE       0.177900
      8 N5           5.1150    -0.7070     0.9480 na         1 6TE      -0.316400
      9 C1           1.7730     2.4330    -1.3380 c3         1 6TE       0.217100
     10 N1           1.2580     1.0610    -1.1350 nh         1 6TE      -0.770300
     11 C2          -0.1550     0.7660    -1.3770 cy         1 6TE       0.238500
     12 C3          -0.7730    -0.4760    -0.6460 cy         1 6TE      -0.108900
     13 C5          -1.1800     1.5990    -0.5390 cy         1 6TE      -0.108900
     14 S1          -3.9160    -1.2860     0.4590 s6         1 6TE       1.195100
     15 O1          -4.6770    -1.3380    -0.7910 o          1 6TE      -0.528500
     16 O2          -2.9810    -2.3500     0.8260 o          1 6TE      -0.528500
     17 N4           4.0680    -2.0310    -0.8610 nb         1 6TE      -0.229000
     18 C10          3.2750     0.0610    -0.0900 ca         1 6TE      -0.244800
     19 C11          3.6350     1.0190     0.9160 cc         1 6TE      -0.206200
     20 C12          4.7690     0.5310     1.5430 cd         1 6TE      -0.179100
     21 H2          -2.6340     0.3020    -1.5990 h1         1 6TE       0.099700
     22 H11         -2.5540     0.0730     1.3250 hn         1 6TE       0.479000
     23 H12         -5.6240    -0.0840     1.5430 h1         1 6TE       0.101700
     24 H13         -5.7000    -1.8580     1.8790 h1         1 6TE       0.101700
     25 H14         -4.4640    -0.8360     2.7100 h1         1 6TE       0.101700
     26 H15          2.9270    -2.8610    -2.3930 h5         1 6TE       0.043100
     27 H3           5.8980    -1.3050     1.1960 hn         1 6TE       0.363000
     28 H4           1.2440     2.9230    -2.1660 h1         1 6TE       0.044033
     29 H5           1.6340     3.0340    -0.4300 h1         1 6TE       0.044033
     30 H6           2.8430     2.4200    -1.5870 h1         1 6TE       0.044033
     31 H1          -0.3900     0.7770    -2.4510 h1         1 6TE       0.071700
     32 H7          -0.3480    -0.6830     0.3430 hc         1 6TE       0.068200
     33 H8          -0.7920    -1.4060    -1.2220 hc         1 6TE       0.068200
     34 H9          -1.5600     2.5070    -1.0180 hc         1 6TE       0.068200
     35 H10         -0.8460     1.8500     0.4740 hc         1 6TE       0.068200
     36 H16          3.1210     1.9450     1.1690 ha         1 6TE       0.202000
     37 H17          5.3440     0.9640     2.3610 h4         1 6TE       0.217000
@<TRIPOS>BOND
     1     1     4 ar  
     2     1     7 ar  
     3     2     3 1   
     4     2    12 1   
     5     2    13 1   
     6     2    21 1   
     7     3    14 1   
     8     3    22 1   
     9     4    10 1   
    10     4    18 ar  
    11     5    14 1   
    12     5    23 1   
    13     5    24 1   
    14     5    25 1   
    15     6     8 1   
    16     6    17 ar  
    17     6    18 ar  
    18     7    17 ar  
    19     7    26 1   
    20     8    20 1   
    21     8    27 1   
    22     9    10 1   
    23     9    28 1   
    24     9    29 1   
    25     9    30 1   
    26    10    11 1   
    27    11    12 1   
    28    11    13 1   
    29    11    31 1   
    30    12    32 1   
    31    12    33 1   
    32    13    34 1   
    33    13    35 1   
    34    14    15 2   
    35    14    16 2   
    36    18    19 1   
    37    19    20 2   
    38    19    36 1   
    39    20    37 1   
@<TRIPOS>SUBSTRUCTURE
     1 6TE         1 TEMP              0 ****  ****    0 ROOT
