@<TRIPOS>MOLECULE
6TE
   37    39     1     0     0
SMALL
bcc


@<TRIPOS>ATOM
      1 N3           1.7650    -1.2940    -0.7150 nb         1 6TE      -0.834000
      2 C4          -2.2240     0.3420    -0.9560 cy         1 6TE       0.180500
      3 N2          -3.3620     0.6260    -0.1060 n7         1 6TE      -0.799100
      4 C7           2.0760    -0.0270    -0.4200 ca         1 6TE       0.760200
      5 C6          -3.8860    -1.9020     0.8760 c3         1 6TE      -0.272300
      6 C9           4.1420    -0.8880     0.3820 ca         1 6TE       0.470800
      7 C8           2.6340    -2.2630    -0.4500 ca         1 6TE       0.703900
      8 N5           5.2950    -0.4820     0.9600 na         1 6TE      -0.266100
      9 C1           1.5050     2.3180    -0.6950 c3         1 6TE       0.217100
     10 N1           1.1510     0.9130    -0.7030 nh         1 6TE      -0.770300
     11 C2          -0.1280     0.4990    -1.2460 cy         1 6TE       0.238500
     12 C3          -1.0160    -0.4590    -0.4340 cy         1 6TE      -0.108900
     13 C5          -1.2780     1.5210    -1.2110 cy         1 6TE      -0.108900
     14 S1          -4.5720    -0.4800     0.0540 s6         1 6TE       1.225900
     15 O1          -5.5620     0.1180     0.9360 o          1 6TE      -0.599300
     16 O2          -4.9640    -0.8850    -1.2880 o          1 6TE      -0.599300
     17 N4           3.8310    -2.1530     0.0870 nb         1 6TE      -0.755000
     18 C10          3.3370     0.2450     0.1690 ca         1 6TE      -0.375400
     19 C11          4.0790     1.3670     0.6670 cc         1 6TE      -0.156200
     20 C12          5.2600     0.8770     1.1360 cd         1 6TE      -0.129100
     21 H2          -2.5860    -0.0680    -1.8980 h1         1 6TE       0.099700
     22 H11         -3.1240     1.0580     0.7820 hn         1 6TE       0.423800
     23 H12         -3.5020    -1.6020     1.8480 h1         1 6TE       0.101700
     24 H13         -4.6830    -2.6340     1.0010 h1         1 6TE       0.101700
     25 H14         -3.0900    -2.3260     0.2690 h1         1 6TE       0.101700
     26 H15          2.3120    -3.2660    -0.7140 h5         1 6TE       0.043100
     27 H3           6.0510    -1.0890     1.2300 hn         1 6TE       0.312700
     28 H4           0.7440     2.8900    -1.2170 h1         1 6TE       0.044033
     29 H5           1.5850     2.7190     0.3170 h1         1 6TE       0.044033
     30 H6           2.4480     2.4920    -1.2140 h1         1 6TE       0.044033
     31 H1          -0.0070     0.1130    -2.2640 h1         1 6TE       0.071700
     32 H7          -0.8760    -0.3020     0.6380 hc         1 6TE       0.068200
     33 H8          -0.9570    -1.5210    -0.6590 hc         1 6TE       0.068200
     34 H9          -1.4510     2.1460    -2.0870 hc         1 6TE       0.068200
     35 H10         -1.2200     2.1520    -0.3210 hc         1 6TE       0.068200
     36 H16          3.7930     2.4040     0.6900 ha         1 6TE       0.152000
     37 H17          6.0910     1.3940     1.5870 h4         1 6TE       0.167000
@<TRIPOS>BOND
     1     1     4 ar  
     2     1     7 ar  
     3     2     3 1   
     4     2    12 1   
     5     2    13 1   
     6     2    21 1   
     7     3    14 1   
     8     3    22 1   
     9     4    10 1   
    10     4    18 ar  
    11     5    14 1   
    12     5    23 1   
    13     5    24 1   
    14     5    25 1   
    15     6     8 1   
    16     6    17 ar  
    17     6    18 ar  
    18     7    17 ar  
    19     7    26 1   
    20     8    20 1   
    21     8    27 1   
    22     9    10 1   
    23     9    28 1   
    24     9    29 1   
    25     9    30 1   
    26    10    11 1   
    27    11    12 1   
    28    11    13 1   
    29    11    31 1   
    30    12    32 1   
    31    12    33 1   
    32    13    34 1   
    33    13    35 1   
    34    14    15 2   
    35    14    16 2   
    36    18    19 1   
    37    19    20 2   
    38    19    36 1   
    39    20    37 1   
@<TRIPOS>SUBSTRUCTURE
     1 6TE         1 TEMP              0 ****  ****    0 ROOT
