@<TRIPOS>MOLECULE
6TF
   62    65     1     0     0
SMALL
abcg2


@<TRIPOS>ATOM
      1 C4          33.5410     8.0600   181.2730 ca         1 6TF      -0.183000
      2 C5          37.2810    11.4920   190.4040 ca         1 6TF      -0.140000
      3 C6          35.8660     9.7960   189.4120 ca         1 6TF      -0.140000
      4 C7          35.3890     6.8120   180.3060 ca         1 6TF      -0.132000
      5 C8          35.7780     8.5380   181.9530 ca         1 6TF      -0.147300
      6 C10         35.8580    12.0480   188.5210 ca         1 6TF      -0.137300
      7 C13         36.6620     9.6180   184.0870 c          1 6TF       0.562000
      8 C15         34.9210    11.9710   185.4020 c          1 6TF       0.590100
      9 C17         37.7590     7.4690   181.1580 c5         1 6TF      -0.031100
     10 C20         32.4740    12.7020   188.0040 c3         1 6TF      -0.103100
     11 C21         32.0950     4.2730   176.8110 c3         1 6TF       0.112300
     12 C22         35.3900    13.1110   187.5430 c3         1 6TF       0.150300
     13 C24         33.0430    12.9110   186.6060 c3         1 6TF       0.051700
     14 C1          34.4160     8.7960   182.0540 ca         1 6TF      -0.026000
     15 C2          36.8040    12.4130   189.4810 ca         1 6TF      -0.079000
     16 C3          35.3980    10.7360   188.4970 ca         1 6TF      -0.079000
     17 C9          36.2560     7.5550   181.0940 ca         1 6TF      -0.026300
     18 C11         34.0140     7.0720   180.3880 ca         1 6TF       0.022000
     19 C12         36.7990    10.1960   190.3460 ca         1 6TF       0.170000
     20 C14         37.0270    11.5310   182.8920 c          1 6TF       0.707100
     21 C16         33.2360     5.5760   178.5400 c          1 6TF       0.658100
     22 C18         38.1120     8.2890   182.4160 c5         1 6TF      -0.067400
     23 C19         36.9180     9.2300   182.6410 c5         1 6TF       0.151300
     24 C25         32.7350    14.3120   186.0710 c3         1 6TF       0.268000
     25 N26         36.7630    10.9840   184.1420 n          1 6TF      -0.396400
     26 N27         33.0510     6.3820   179.6490 ns         1 6TF      -0.164000
     27 N28         32.0840     5.1280   177.9830 ns         1 6TF      -0.530900
     28 N29         34.4780    12.6440   186.4970 n          1 6TF      -0.413800
     29 O30         36.4090     8.8830   185.0120 o          1 6TF      -0.482000
     30 O31         37.1300    12.7030   182.6350 o          1 6TF      -0.496000
     31 O32         34.1820    11.5430   184.5260 o          1 6TF      -0.583100
     32 O33         34.3430     5.2820   178.0870 o          1 6TF      -0.624100
     33 O34         37.1650    10.5420   182.0020 os         1 6TF      -0.399100
     34 F35         37.2680     9.2860   191.2400 f          1 6TF      -0.179000
     35 F36         31.4050    14.5360   186.0400 f          1 6TF      -0.111333
     36 F37         33.1950    14.4840   184.8150 f          1 6TF      -0.111333
     37 F38         33.2820    15.2970   186.8190 f          1 6TF      -0.111333
     38 H1          32.4760     8.2440   181.3340 ha         1 6TF       0.113000
     39 H3          35.5140     8.7730   189.3950 ha         1 6TF       0.138500
     40 H4          35.7550     6.0480   179.6410 ha         1 6TF       0.157000
     41 H5          38.1190     6.4420   181.2260 hc         1 6TF       0.068200
     42 H6          32.6470    11.6730   188.3130 hc         1 6TF       0.060033
     43 H7          32.9180    13.3700   188.7410 hc         1 6TF       0.060033
     44 H8          31.4000    12.8770   187.9880 hc         1 6TF       0.060033
     45 H9          31.0640     4.0510   176.5460 h1         1 6TF       0.042700
     46 H10         32.5790     4.7660   175.9650 h1         1 6TF       0.042700
     47 H11         32.6190     3.3360   177.0090 h1         1 6TF       0.042700
     48 H12         36.2560    13.5860   187.0810 h1         1 6TF       0.068200
     49 H13         34.8880    13.9040   188.0900 h1         1 6TF       0.068200
     50 H14         32.5510    12.2330   185.9110 h1         1 6TF       0.113700
     51 H15         34.0380     9.5580   182.7250 ha         1 6TF       0.140000
     52 H16         37.1770    13.4300   189.5080 ha         1 6TF       0.122500
     53 H17         34.6720    10.4260   187.7590 ha         1 6TF       0.122500
     54 H18         38.1790     7.6310   183.2840 hc         1 6TF       0.070700
     55 H21         32.0970     6.6040   179.8890 hn         1 6TF       0.144000
     56 H22         31.1950     5.3950   178.3710 hn         1 6TF       0.312500
     57 H23         38.2030     7.9090   180.2610 hc         1 6TF       0.068200
     58 H24         39.0420     8.8490   182.3380 hc         1 6TF       0.070700
     59 C23         36.4380    11.7740   185.3000 c3         1 6TF       0.040000
     60 H2          38.0150    11.7680   191.1500 ha         1 6TF       0.138500
     61 H19         36.8270    11.2720   186.1840 h1         1 6TF       0.095200
     62 H20         36.9330    12.7400   185.2080 h1         1 6TF       0.095200
@<TRIPOS>BOND
     1     1    14 ar  
     2     1    18 ar  
     3     1    38 1   
     4     2    15 ar  
     5     2    19 ar  
     6     2    60 1   
     7     3    16 ar  
     8     3    19 ar  
     9     3    39 1   
    10     4    17 ar  
    11     4    18 ar  
    12     4    40 1   
    13     5    14 ar  
    14     5    17 ar  
    15     5    23 1   
    16     6    12 1   
    17     6    15 ar  
    18     6    16 ar  
    19     7    23 1   
    20     7    25 1   
    21     7    29 2   
    22     8    28 1   
    23     8    31 2   
    24     8    59 1   
    25     9    17 1   
    26     9    22 1   
    27     9    41 1   
    28     9    57 1   
    29    10    13 1   
    30    10    42 1   
    31    10    43 1   
    32    10    44 1   
    33    11    27 1   
    34    11    45 1   
    35    11    46 1   
    36    11    47 1   
    37    12    28 1   
    38    12    48 1   
    39    12    49 1   
    40    13    24 1   
    41    13    28 1   
    42    13    50 1   
    43    14    51 1   
    44    15    52 1   
    45    16    53 1   
    46    18    26 1   
    47    19    34 1   
    48    20    25 1   
    49    20    30 2   
    50    20    33 1   
    51    21    26 1   
    52    21    27 1   
    53    21    32 2   
    54    22    23 1   
    55    22    54 1   
    56    22    58 1   
    57    23    33 1   
    58    24    35 1   
    59    24    36 1   
    60    24    37 1   
    61    25    59 1   
    62    26    55 1   
    63    27    56 1   
    64    59    61 1   
    65    59    62 1   
@<TRIPOS>SUBSTRUCTURE
     1 6TF         1 TEMP              0 ****  ****    0 ROOT
