@<TRIPOS>MOLECULE
6TF
   62    65     1     0     0
SMALL
No Charge or Current Charge


@<TRIPOS>ATOM
      1 C4          33.5590     8.0330   180.9300 ca         1 6TF      -0.183000
      2 C5          38.0200    11.3750   189.5810 ca         1 6TF      -0.140000
      3 C6          35.9560    10.1200   189.8680 ca         1 6TF      -0.140000
      4 C7          35.5110     6.8240   180.1120 ca         1 6TF      -0.132000
      5 C8          35.7460     8.4810   181.8610 ca         1 6TF      -0.147300
      6 C10         35.9480    12.1960   188.5800 ca         1 6TF      -0.137300
      7 C13         36.3760     9.3390   184.2210 c          1 6TF       0.562000
      8 C15         34.6730    11.9230   185.6460 c          1 6TF       0.590100
      9 C17         37.7980     7.4310   181.1900 c5         1 6TF      -0.031100
     10 C20         32.1320    12.9650   188.1620 c3         1 6TF      -0.103100
     11 C21         32.2030     4.0030   176.5580 c3         1 6TF       0.112300
     12 C22         35.2170    13.2410   187.7410 c3         1 6TF       0.150300
     13 C24         32.8290    13.2250   186.8000 c3         1 6TF       0.051700
     14 C1          34.3680     8.7490   181.8330 ca         1 6TF      -0.026000
     15 C2          37.3300    12.3380   188.8230 ca         1 6TF      -0.079000
     16 C3          35.2640    11.0820   189.1100 ca         1 6TF      -0.079000
     17 C9          36.3030     7.5430   181.0200 ca         1 6TF      -0.026300
     18 C11         34.1170     7.0660   180.0650 ca         1 6TF       0.022000
     19 C12         37.3310    10.2700   190.1010 ca         1 6TF       0.170000
     20 C14         36.9360    11.3620   183.2110 c          1 6TF       0.707100
     21 C16         33.4380     5.3950   178.2410 c          1 6TF       0.658100
     22 C18         38.0100     8.1520   182.5800 c5         1 6TF      -0.067400
     23 C19         36.7820     9.1300   182.7420 c5         1 6TF       0.151300
     24 C25         32.7020    14.7090   186.3330 c3         1 6TF       0.268000
     25 N26         36.5020    10.7020   184.3450 n          1 6TF      -0.396400
     26 N27         33.2320     6.3900   179.1830 ns         1 6TF      -0.164000
     27 N28         32.2790     5.0300   177.5990 ns         1 6TF      -0.530900
     28 N29         34.2380    12.6990   186.7570 n          1 6TF      -0.413800
     29 O30         36.0100     8.5530   185.0850 o          1 6TF      -0.482000
     30 O31         37.1150    12.5640   183.1050 o          1 6TF      -0.496000
     31 O32         33.8940    11.6310   184.7450 o          1 6TF      -0.583100
     32 O33         34.5130     4.8740   177.9830 o          1 6TF      -0.624100
     33 O34         37.1470    10.4370   182.2240 os         1 6TF      -0.399100
     34 F35         37.9940     9.3450   190.8290 f          1 6TF      -0.179000
     35 F36         31.4060    15.0420   186.1330 f          1 6TF      -0.111333
     36 F37         33.3580    14.9080   185.1660 f          1 6TF      -0.111333
     37 F38         33.2110    15.5710   187.2440 f          1 6TF      -0.111333
     38 H1          32.4900     8.2330   180.9030 ha         1 6TF       0.113000
     39 H3          35.4290     9.2610   190.2740 ha         1 6TF       0.138500
     40 H4          35.9890     6.0990   179.4610 ha         1 6TF       0.157000
     41 H5          38.1530     6.3940   181.2040 hc         1 6TF       0.068200
     42 H6          32.1430    11.8950   188.3990 hc         1 6TF       0.060033
     43 H7          32.6150    13.5070   188.9830 hc         1 6TF       0.060033
     44 H8          31.0820    13.2800   188.1250 hc         1 6TF       0.060033
     45 H9          31.1660     3.9060   176.2110 h1         1 6TF       0.042700
     46 H10         32.8420     4.2860   175.7110 h1         1 6TF       0.042700
     47 H11         32.5400     3.0400   176.9630 h1         1 6TF       0.042700
     48 H12         35.9490    13.8500   187.1940 h1         1 6TF       0.068200
     49 H13         34.7140    13.9270   188.4330 h1         1 6TF       0.068200
     50 H14         32.2320    12.6520   186.0780 h1         1 6TF       0.113700
     51 H15         33.9310     9.4960   182.4930 ha         1 6TF       0.140000
     52 H16         37.8740    13.1930   188.4240 ha         1 6TF       0.122500
     53 H17         34.2000    10.9530   188.9330 ha         1 6TF       0.122500
     54 H18         38.0090     7.4060   183.3830 hc         1 6TF       0.070700
     55 H21         32.2720     6.6960   179.2610 hn         1 6TF       0.144000
     56 H22         31.4280     5.5090   177.8690 hn         1 6TF       0.312500
     57 H23         38.3280     7.9520   180.3840 hc         1 6TF       0.068200
     58 H24         38.9740     8.6700   182.6390 hc         1 6TF       0.070700
     59 C23         36.1400    11.4250   185.5950 c3         1 6TF       0.040000
     60 H2          39.0850    11.4850   189.7670 ha         1 6TF       0.138500
     61 H19         36.2950    10.7600   186.4530 h1         1 6TF       0.095200
     62 H20         36.8000    12.2910   185.7180 h1         1 6TF       0.095200
@<TRIPOS>BOND
     1     1    14 ar  
     2     1    18 ar  
     3     1    38 1   
     4     2    15 ar  
     5     2    19 ar  
     6     2    60 1   
     7     3    16 ar  
     8     3    19 ar  
     9     3    39 1   
    10     4    17 ar  
    11     4    18 ar  
    12     4    40 1   
    13     5    14 ar  
    14     5    17 ar  
    15     5    23 1   
    16     6    12 1   
    17     6    15 ar  
    18     6    16 ar  
    19     7    23 1   
    20     7    25 1   
    21     7    29 2   
    22     8    28 1   
    23     8    31 2   
    24     8    59 1   
    25     9    17 1   
    26     9    22 1   
    27     9    41 1   
    28     9    57 1   
    29    10    13 1   
    30    10    42 1   
    31    10    43 1   
    32    10    44 1   
    33    11    27 1   
    34    11    45 1   
    35    11    46 1   
    36    11    47 1   
    37    12    28 1   
    38    12    48 1   
    39    12    49 1   
    40    13    24 1   
    41    13    28 1   
    42    13    50 1   
    43    14    51 1   
    44    15    52 1   
    45    16    53 1   
    46    18    26 1   
    47    19    34 1   
    48    20    25 1   
    49    20    30 2   
    50    20    33 1   
    51    21    26 1   
    52    21    27 1   
    53    21    32 2   
    54    22    23 1   
    55    22    54 1   
    56    22    58 1   
    57    23    33 1   
    58    24    35 1   
    59    24    36 1   
    60    24    37 1   
    61    25    59 1   
    62    26    55 1   
    63    27    56 1   
    64    59    61 1   
    65    59    62 1   
@<TRIPOS>SUBSTRUCTURE
     1 6TF         1 TEMP              0 ****  ****    0 ROOT
