@<TRIPOS>MOLECULE
6TG
   52    55     1     0     0
SMALL
abcg2


@<TRIPOS>ATOM
      1 C1           4.8460    -0.8930     1.8170 c3         1 6TG      -0.039300
      2 C2           3.7280    -0.8620     0.8150 ca         1 6TG      -0.093800
      3 C3           2.7710     0.1490     0.8510 ca         1 6TG      -0.080500
      4 C4           1.7480     0.2100    -0.0850 ca         1 6TG      -0.065300
      5 C5           1.6890    -0.7590    -1.0800 ca         1 6TG      -0.080500
      6 C6           2.6260    -1.7840    -1.1500 ca         1 6TG      -0.093800
      7 C7           3.6380    -1.8250    -0.1890 ca         1 6TG       0.101100
      8 O8           4.5870    -2.8070    -0.2610 os         1 6TG      -0.365100
      9 C9           4.2670    -3.9870     0.4600 c3         1 6TG       0.151900
     10 C10          2.5760    -2.7970    -2.2570 c3         1 6TG      -0.039300
     11 C11          0.6730     1.2880    -0.0160 c5         1 6TG       0.374000
     12 N12          1.1890     2.4580     0.6880 n2         1 6TG      -0.546900
     13 C13          1.1130     3.4310    -0.1230 ce         1 6TG       0.306000
     14 C14          0.5430     2.9510    -1.4120 ce         1 6TG       0.528900
     15 N15          0.2810     1.6980    -1.3450 n2         1 6TG      -0.664900
     16 N16          0.3890     3.7460    -2.4830 nv         1 6TG      -1.025200
     17 C17          1.5240     4.8290     0.1560 c3         1 6TG      -0.124400
     18 C18         -0.5190     0.7480     0.7690 ca         1 6TG      -0.061300
     19 C19         -0.4410     0.6230     2.1540 ca         1 6TG      -0.073000
     20 C20         -1.5130     0.1150     2.8710 ca         1 6TG      -0.118000
     21 C21         -2.6710    -0.2800     2.2180 ca         1 6TG      -0.091000
     22 C22         -2.7620    -0.1660     0.8330 cp         1 6TG      -0.046000
     23 C23         -1.6790     0.3510     0.1200 ca         1 6TG      -0.072000
     24 C24         -3.9810    -0.5820     0.1240 cp         1 6TG      -0.128000
     25 C25         -5.2580    -0.3650     0.6360 ca         1 6TG       0.109900
     26 N26         -6.3580    -0.7390    -0.0000 nb         1 6TG      -0.172500
     27 C27         -6.1950    -1.3360    -1.1710 ca         1 6TG       0.111900
     28 N28         -5.0370    -1.5950    -1.7600 nb         1 6TG      -0.172500
     29 C29         -3.9440    -1.2220    -1.1110 ca         1 6TG       0.109900
     30 H11C         4.7880    -1.7650     2.4700 hc         1 6TG       0.043033
     31 H12C         5.8220    -0.9200     1.3320 hc         1 6TG       0.043033
     32 H13C         4.8140    -0.0090     2.4530 hc         1 6TG       0.043033
     33 H3           2.8410     0.9000     1.6260 ha         1 6TG       0.128500
     34 H5           0.9030    -0.7150    -1.8230 ha         1 6TG       0.128500
     35 H101         3.4920    -2.7850    -2.8510 hc         1 6TG       0.043033
     36 H102         2.4530    -3.8140    -1.8840 hc         1 6TG       0.043033
     37 H103         1.7430    -2.5950    -2.9290 hc         1 6TG       0.043033
     38 H91C         4.1450    -3.7930     1.5290 h1         1 6TG       0.032700
     39 H92C         3.3510    -4.4570     0.0910 h1         1 6TG       0.032700
     40 H93C         5.0930    -4.6830     0.3260 h1         1 6TG       0.032700
     41 H171         2.3040     5.1470    -0.5380 hc         1 6TG       0.058367
     42 H172         0.6810     5.5110     0.0280 hc         1 6TG       0.058367
     43 H173         1.8980     4.9300     1.1710 hc         1 6TG       0.058367
     44 H161         0.3990     4.7450    -2.3670 hn         1 6TG       0.486500
     45 H162        -0.1450     3.4070    -3.2660 hn         1 6TG       0.486500
     46 H19          0.4550     0.9250     2.6780 ha         1 6TG       0.129000
     47 H23         -1.7470     0.4690    -0.9540 ha         1 6TG       0.134000
     48 H20         -1.4440     0.0200     3.9460 ha         1 6TG       0.116000
     49 H21         -3.4930    -0.6970     2.7870 ha         1 6TG       0.114000
     50 H25         -5.3940     0.1420     1.5860 h4         1 6TG       0.028100
     51 H29         -2.9940    -1.4520    -1.5840 h4         1 6TG       0.028100
     52 H27         -7.0930    -1.6390    -1.6970 h5         1 6TG       0.050100
@<TRIPOS>BOND
     1     1     2 1   
     2     1    30 1   
     3     1    31 1   
     4     1    32 1   
     5     2     3 ar  
     6     2     7 ar  
     7     3     4 ar  
     8     3    33 1   
     9     4     5 ar  
    10     4    11 1   
    11     5     6 ar  
    12     5    34 1   
    13     6     7 ar  
    14     6    10 1   
    15     7     8 1   
    16     8     9 1   
    17     9    38 1   
    18     9    39 1   
    19     9    40 1   
    20    10    35 1   
    21    10    36 1   
    22    10    37 1   
    23    11    12 1   
    24    11    15 1   
    25    11    18 1   
    26    12    13 2   
    27    13    14 1   
    28    13    17 1   
    29    14    15 2   
    30    14    16 1   
    31    16    44 1   
    32    16    45 1   
    33    17    41 1   
    34    17    42 1   
    35    17    43 1   
    36    18    19 ar  
    37    18    23 ar  
    38    19    20 ar  
    39    19    46 1   
    40    20    21 ar  
    41    20    48 1   
    42    21    22 ar  
    43    21    49 1   
    44    22    23 ar  
    45    22    24 1   
    46    23    47 1   
    47    24    25 ar  
    48    24    29 ar  
    49    25    26 ar  
    50    25    50 1   
    51    26    27 ar  
    52    27    28 ar  
    53    27    52 1   
    54    28    29 ar  
    55    29    51 1   
@<TRIPOS>SUBSTRUCTURE
     1 6TG         1 TEMP              0 ****  ****    0 ROOT
