@<TRIPOS>MOLECULE
6TG
   52    55     1     0     0
SMALL
No Charge or Current Charge


@<TRIPOS>ATOM
      1 C1           4.9990    -0.8720     1.6900 c3         1 6TG      -0.039300
      2 C2           3.8030    -0.8500     0.7430 ca         1 6TG      -0.093800
      3 C3           2.8770     0.2080     0.8190 ca         1 6TG      -0.080500
      4 C4           1.7600     0.2700    -0.0470 ca         1 6TG      -0.065300
      5 C5           1.5860    -0.7730    -0.9840 ca         1 6TG      -0.080500
      6 C6           2.4990    -1.8400    -1.0750 ca         1 6TG      -0.093800
      7 C7           3.6060    -1.8780    -0.2020 ca         1 6TG       0.101100
      8 O8           4.5000    -2.9220    -0.2750 os         1 6TG      -0.365100
      9 C9           4.2670    -4.0950     0.5210 c3         1 6TG       0.151900
     10 C10          2.2730    -2.9370    -2.1110 c3         1 6TG      -0.039300
     11 C11          0.7170     1.4070     0.0370 c5         1 6TG       0.374000
     12 N12          1.2520     2.6060     0.7720 n2         1 6TG      -0.546900
     13 C13          1.1960     3.5740    -0.0730 ce         1 6TG       0.306000
     14 C14          0.6570     3.1180    -1.3560 ce         1 6TG       0.528900
     15 N15          0.3650     1.8820    -1.3480 n2         1 6TG      -0.664900
     16 N16          0.4340     3.9240    -2.4480 nv         1 6TG      -1.025200
     17 C17          1.6410     5.0000     0.2040 c3         1 6TG      -0.124400
     18 C18         -0.5110     0.8400     0.7830 ca         1 6TG      -0.061300
     19 C19         -0.4980     0.7390     2.1910 ca         1 6TG      -0.073000
     20 C20         -1.5950     0.2080     2.8860 ca         1 6TG      -0.118000
     21 C21         -2.7230    -0.2430     2.1850 ca         1 6TG      -0.091000
     22 C22         -2.7730    -0.1780     0.7720 cp         1 6TG      -0.046000
     23 C23         -1.6530     0.3660     0.0920 ca         1 6TG      -0.072000
     24 C24         -3.9700    -0.6730     0.0200 cp         1 6TG      -0.128000
     25 C25         -5.2760    -0.6500     0.5740 ca         1 6TG       0.109900
     26 N26         -6.3570    -1.0950    -0.0990 nb         1 6TG      -0.172500
     27 C27         -6.1380    -1.5720    -1.3410 ca         1 6TG       0.111900
     28 N28         -4.9490    -1.6490    -1.9750 nb         1 6TG      -0.172500
     29 C29         -3.8750    -1.2000    -1.2950 ca         1 6TG       0.109900
     30 H11C         4.8530    -1.6070     2.4900 hc         1 6TG       0.043033
     31 H12C         5.9230    -1.1300     1.1590 hc         1 6TG       0.043033
     32 H13C         5.1600     0.1040     2.1630 hc         1 6TG       0.043033
     33 H3           3.0320     0.9830     1.5660 ha         1 6TG       0.128500
     34 H5           0.7250    -0.7540    -1.6490 ha         1 6TG       0.128500
     35 H101         3.2050    -3.1960    -2.6280 hc         1 6TG       0.043033
     36 H102         1.8850    -3.8470    -1.6390 hc         1 6TG       0.043033
     37 H103         1.5520    -2.6290    -2.8770 hc         1 6TG       0.043033
     38 H91C         4.2500    -3.8430     1.5890 h1         1 6TG       0.032700
     39 H92C         3.3070    -4.5580     0.2600 h1         1 6TG       0.032700
     40 H93C         5.0620    -4.8330     0.3550 h1         1 6TG       0.032700
     41 H171         1.5720     5.6420    -0.6800 hc         1 6TG       0.058367
     42 H172         1.0280     5.4520     0.9920 hc         1 6TG       0.058367
     43 H173         2.6830     5.0210     0.5410 hc         1 6TG       0.058367
     44 H161         0.3310     4.9210    -2.2820 hn         1 6TG       0.486500
     45 H162        -0.1590     3.5290    -3.1710 hn         1 6TG       0.486500
     46 H19          0.3720     1.0700     2.7550 ha         1 6TG       0.129000
     47 H23         -1.6810     0.4230    -0.9910 ha         1 6TG       0.134000
     48 H20         -1.5670     0.1390     3.9710 ha         1 6TG       0.116000
     49 H21         -3.5540    -0.6640     2.7450 ha         1 6TG       0.114000
     50 H25         -5.4630    -0.2550     1.5710 h4         1 6TG       0.028100
     51 H29         -2.9180    -1.2780    -1.8090 h4         1 6TG       0.028100
     52 H27         -7.0070    -1.9330    -1.8880 h5         1 6TG       0.050100
@<TRIPOS>BOND
     1     1     2 1   
     2     1    30 1   
     3     1    31 1   
     4     1    32 1   
     5     2     3 ar  
     6     2     7 ar  
     7     3     4 ar  
     8     3    33 1   
     9     4     5 ar  
    10     4    11 1   
    11     5     6 ar  
    12     5    34 1   
    13     6     7 ar  
    14     6    10 1   
    15     7     8 1   
    16     8     9 1   
    17     9    38 1   
    18     9    39 1   
    19     9    40 1   
    20    10    35 1   
    21    10    36 1   
    22    10    37 1   
    23    11    12 1   
    24    11    15 1   
    25    11    18 1   
    26    12    13 2   
    27    13    14 1   
    28    13    17 1   
    29    14    15 2   
    30    14    16 1   
    31    16    44 1   
    32    16    45 1   
    33    17    41 1   
    34    17    42 1   
    35    17    43 1   
    36    18    19 ar  
    37    18    23 ar  
    38    19    20 ar  
    39    19    46 1   
    40    20    21 ar  
    41    20    48 1   
    42    21    22 ar  
    43    21    49 1   
    44    22    23 ar  
    45    22    24 1   
    46    23    47 1   
    47    24    25 ar  
    48    24    29 ar  
    49    25    26 ar  
    50    25    50 1   
    51    26    27 ar  
    52    27    28 ar  
    53    27    52 1   
    54    28    29 ar  
    55    29    51 1   
@<TRIPOS>SUBSTRUCTURE
     1 6TG         1 TEMP              0 ****  ****    0 ROOT
