@<TRIPOS>MOLECULE
6TH
   61    63     1     0     0
SMALL
abcg2


@<TRIPOS>ATOM
      1 C4          21.9210   -14.2790    23.9570 c6         1 6TH      -0.073400
      2 C5          22.2380   -13.7670    25.3630 c6         1 6TH      -0.075400
      3 C6          21.1400   -12.8310    25.8720 c6         1 6TH      -0.073400
      4 N1          17.8090   -12.8220    21.4150 n          1 6TH      -0.394800
      5 C7          19.7610   -13.4880    25.8000 c6         1 6TH      -0.072900
      6 C8          17.0870   -13.3570    22.4120 c          1 6TH       0.613100
      7 C9          19.0010   -13.3720    20.7520 c5         1 6TH       0.107000
      8 C10         19.7240   -12.1180    20.2720 c5         1 6TH      -0.094400
      9 C11         18.5750   -11.1860    19.8830 c5         1 6TH      -0.084400
     10 C12         17.4940   -11.4700    20.9420 c5         1 6TH       0.031700
     11 C13         16.0900   -11.4110    20.3380 c          1 6TH       0.599100
     12 C14         13.9910   -10.1010    20.2530 c3         1 6TH       0.146300
     13 C15         13.0190   -10.0300    21.4090 ca         1 6TH      -0.113300
     14 O2          16.1480   -12.7340    22.9240 o          1 6TH      -0.631100
     15 C           17.4240   -14.7540    22.9310 c3         1 6TH       0.093500
     16 C1          18.0500   -14.6390    24.3330 c3         1 6TH      -0.107400
     17 C2          19.4360   -13.9870    24.3870 c6         1 6TH      -0.060700
     18 C3          20.5410   -14.9360    23.9070 c6         1 6TH      -0.072900
     19 N           16.1690   -15.5190    22.9070 n8         1 6TH      -0.985200
     20 O1          15.7080   -12.2640    19.5400 o          1 6TH      -0.604100
     21 C20         12.5780   -11.1830    22.0820 ca         1 6TH      -0.045300
     22 C21         13.0500   -12.5440    21.6430 c3         1 6TH       0.194900
     23 O           12.4000   -13.5660    22.3970 oh         1 6TH      -0.675000
     24 C19         11.7070   -11.0420    23.1590 ca         1 6TH      -0.083000
     25 C18         11.2660    -9.7910    23.5780 ca         1 6TH      -0.096000
     26 C17         11.7060    -8.6680    22.9000 ca         1 6TH       0.116000
     27 CL          11.1630    -7.0790    23.4050 cl         1 6TH      -0.219000
     28 C16         12.5750    -8.7780    21.8230 ca         1 6TH      -0.098000
     29 H1          22.6860   -14.9880    23.6300 hc         1 6TH       0.038950
     30 H2          21.9460   -13.4410    23.2510 hc         1 6TH       0.038950
     31 H3          22.3250   -14.6220    26.0430 hc         1 6TH       0.039700
     32 H4          23.2050   -13.2560    25.3720 hc         1 6TH       0.039700
     33 H5          21.3550   -12.5180    26.8980 hc         1 6TH       0.038950
     34 H6          21.1340   -11.9210    25.2610 hc         1 6TH       0.038950
     35 H7          18.9900   -12.7840    26.1240 hc         1 6TH       0.039700
     36 H8          19.7250   -14.3380    26.4920 hc         1 6TH       0.039700
     37 H9          15.7290    -9.7250    21.4060 hn         1 6TH       0.317500
     38 H10         18.7070   -14.0080    19.9130 h1         1 6TH       0.058200
     39 H11         19.6000   -13.9580    21.4400 h1         1 6TH       0.058200
     40 H12         20.4020   -12.3240    19.4450 hc         1 6TH       0.057200
     41 H13         20.3000   -11.6910    21.0950 hc         1 6TH       0.057200
     42 H14         18.8530   -10.1340    19.8710 hc         1 6TH       0.065200
     43 H15         18.1960   -11.4550    18.8960 hc         1 6TH       0.065200
     44 H16         17.5700   -10.7750    21.7800 h1         1 6TH       0.065700
     45 H17         13.9610    -9.1610    19.7000 h1         1 6TH       0.065700
     46 H18         13.7360   -10.9030    19.5650 h1         1 6TH       0.065700
     47 H19         18.1170   -15.2530    22.2560 h1         1 6TH       0.069700
     48 H20         17.3510   -14.0750    24.9570 hc         1 6TH       0.052200
     49 H21         18.1100   -15.6470    24.7540 hc         1 6TH       0.052200
     50 H22         19.4350   -13.1060    23.7310 hc         1 6TH       0.047700
     51 H23         20.3330   -15.2960    22.8960 hc         1 6TH       0.039700
     52 H24         20.5380   -15.8220    24.5540 hc         1 6TH       0.039700
     53 H25         16.3290   -16.4280    23.3300 hn         1 6TH       0.405500
     54 H26         15.4890   -15.0410    23.4920 hn         1 6TH       0.405500
     55 H28         14.1310   -12.6130    21.7790 h1         1 6TH       0.055200
     56 H29         12.8430   -12.6740    20.5750 h1         1 6TH       0.055200
     57 H30         12.8490   -14.3980    22.2040 ho         1 6TH       0.452000
     58 H31         11.3660   -11.9250    23.6790 ha         1 6TH       0.140000
     59 H32         10.5890    -9.6970    24.4170 ha         1 6TH       0.129000
     60 H33         12.9090    -7.8900    21.3030 ha         1 6TH       0.123000
     61 N2          15.3550   -10.3480    20.7060 ns         1 6TH      -0.495900
@<TRIPOS>BOND
     1     1     2 1   
     2     1    18 1   
     3     1    29 1   
     4     1    30 1   
     5     2     3 1   
     6     2    31 1   
     7     2    32 1   
     8     3     5 1   
     9     3    33 1   
    10     3    34 1   
    11     4     6 1   
    12     4     7 1   
    13     4    10 1   
    14     5    17 1   
    15     5    35 1   
    16     5    36 1   
    17     6    14 2   
    18     6    15 1   
    19     7     8 1   
    20     7    38 1   
    21     7    39 1   
    22     8     9 1   
    23     8    40 1   
    24     8    41 1   
    25     9    10 1   
    26     9    42 1   
    27     9    43 1   
    28    10    11 1   
    29    10    44 1   
    30    11    20 2   
    31    11    61 1   
    32    12    13 1   
    33    12    45 1   
    34    12    46 1   
    35    12    61 1   
    36    13    21 ar  
    37    13    28 ar  
    38    15    16 1   
    39    15    19 1   
    40    15    47 1   
    41    16    17 1   
    42    16    48 1   
    43    16    49 1   
    44    17    18 1   
    45    17    50 1   
    46    18    51 1   
    47    18    52 1   
    48    19    53 1   
    49    19    54 1   
    50    21    22 1   
    51    21    24 ar  
    52    22    23 1   
    53    22    55 1   
    54    22    56 1   
    55    23    57 1   
    56    24    25 ar  
    57    24    58 1   
    58    25    26 ar  
    59    25    59 1   
    60    26    27 1   
    61    26    28 ar  
    62    28    60 1   
    63    37    61 1   
@<TRIPOS>SUBSTRUCTURE
     1 6TH         1 TEMP              0 ****  ****    0 ROOT
