@<TRIPOS>MOLECULE
6TH
   61    63     1     0     0
SMALL
No Charge or Current Charge


@<TRIPOS>ATOM
      1 C4          21.4600   -13.0760    25.2460 c6         1 6TH      -0.073400
      2 C5          21.4670   -13.7060    26.6590 c6         1 6TH      -0.075400
      3 C6          20.0610   -14.2280    27.0400 c6         1 6TH      -0.073400
      4 N1          18.0310   -13.0010    20.8190 n          1 6TH      -0.394800
      5 C7          19.5320   -15.2290    25.9830 c6         1 6TH      -0.072900
      6 C8          17.8520   -13.8780    21.9150 c          1 6TH       0.613100
      7 C9          19.1940   -13.0440    19.9040 c5         1 6TH       0.107000
      8 C10         19.1390   -11.6360    19.2610 c5         1 6TH      -0.094400
      9 C11         17.6160   -11.3960    19.1410 c5         1 6TH      -0.084400
     10 C12         17.1010   -11.8690    20.5340 c5         1 6TH       0.031700
     11 C13         15.5910   -12.2530    20.3900 c          1 6TH       0.599100
     12 C14         13.3530   -11.1560    20.6720 c3         1 6TH       0.146300
     13 C15         12.8030    -9.9900    21.4850 ca         1 6TH      -0.113300
     14 O2          16.9400   -13.6740    22.7130 o          1 6TH      -0.631100
     15 C           18.8140   -15.1330    22.0530 c3         1 6TH       0.093500
     16 C1          18.9610   -15.6380    23.5180 c3         1 6TH      -0.107400
     17 C2          19.5120   -14.6070    24.5580 c6         1 6TH      -0.060700
     18 C3          20.9280   -14.0720    24.1860 c6         1 6TH      -0.072900
     19 N           18.4480   -16.3000    21.1810 n8         1 6TH      -0.985200
     20 O1          15.1200   -13.3370    20.0650 o          1 6TH      -0.604100
     21 C20         12.6570   -10.0650    22.8960 ca         1 6TH      -0.045300
     22 C21         13.0460   -11.3160    23.6870 c3         1 6TH       0.194900
     23 O           11.9630   -12.2590    23.6970 oh         1 6TH      -0.675000
     24 C19         12.1390    -8.9550    23.5970 ca         1 6TH      -0.083000
     25 C18         11.7750    -7.7820    22.9140 ca         1 6TH      -0.096000
     26 C17         11.9260    -7.7090    21.5230 ca         1 6TH       0.116000
     27 Cl          11.4740    -6.2410    20.6660 cl         1 6TH      -0.219000
     28 C16         12.4370    -8.8060    20.8120 ca         1 6TH      -0.098000
     29 H1          22.4750   -12.7540    24.9780 hc         1 6TH       0.038950
     30 H2          20.8370   -12.1710    25.2480 hc         1 6TH       0.038950
     31 H3          22.1910   -14.5320    26.6940 hc         1 6TH       0.039700
     32 H4          21.8030   -12.9650    27.3970 hc         1 6TH       0.039700
     33 H5          20.0970   -14.7110    28.0260 hc         1 6TH       0.038950
     34 H6          19.3640   -13.3830    27.1310 hc         1 6TH       0.038950
     35 H7          18.5210   -15.5530    26.2650 hc         1 6TH       0.039700
     36 H8          20.1600   -16.1310    25.9890 hc         1 6TH       0.039700
     37 H9          15.2910   -10.2980    20.9330 hn         1 6TH       0.317500
     38 H10         19.0690   -13.8380    19.1560 h1         1 6TH       0.058200
     39 H11         20.1470   -13.1970    20.4270 h1         1 6TH       0.058200
     40 H12         19.6550   -11.5970    18.2940 hc         1 6TH       0.057200
     41 H13         19.6060   -10.8870    19.9120 hc         1 6TH       0.057200
     42 H14         17.3660   -10.3490    18.9330 hc         1 6TH       0.065200
     43 H15         17.1930   -11.9990    18.3270 hc         1 6TH       0.065200
     44 H16         17.2150   -11.0870    21.2960 h1         1 6TH       0.065700
     45 H17         13.0100   -11.0820    19.6310 h1         1 6TH       0.065700
     46 H18         12.9810   -12.1070    21.0740 h1         1 6TH       0.065700
     47 H19         19.8120   -14.8110    21.7340 h1         1 6TH       0.069700
     48 H20         17.9810   -15.9980    23.8560 hc         1 6TH       0.052200
     49 H21         19.6170   -16.5170    23.5170 hc         1 6TH       0.052200
     50 H22         18.8170   -13.7570    24.5740 hc         1 6TH       0.047700
     51 H23         20.9030   -13.5640    23.2130 hc         1 6TH       0.039700
     52 H24         21.6300   -14.9110    24.0840 hc         1 6TH       0.039700
     53 H25         19.0640   -17.0930    21.3950 hn         1 6TH       0.405500
     54 H26         17.5160   -16.6420    21.4480 hn         1 6TH       0.405500
     55 H28         13.3060   -11.0240    24.7140 h1         1 6TH       0.055200
     56 H29         13.9490   -11.7670    23.2520 h1         1 6TH       0.055200
     57 H30         12.2610   -13.0300    24.2310 ho         1 6TH       0.452000
     58 H31         12.0180    -9.0030    24.6770 ha         1 6TH       0.140000
     59 H32         11.3780    -6.9320    23.4630 ha         1 6TH       0.129000
     60 H33         12.5480    -8.7340    19.7330 ha         1 6TH       0.123000
     61 N2          14.8130   -11.1550    20.6830 ns         1 6TH      -0.495900
@<TRIPOS>BOND
     1     1     2 1   
     2     1    18 1   
     3     1    29 1   
     4     1    30 1   
     5     2     3 1   
     6     2    31 1   
     7     2    32 1   
     8     3     5 1   
     9     3    33 1   
    10     3    34 1   
    11     4     6 1   
    12     4     7 1   
    13     4    10 1   
    14     5    17 1   
    15     5    35 1   
    16     5    36 1   
    17     6    14 2   
    18     6    15 1   
    19     7     8 1   
    20     7    38 1   
    21     7    39 1   
    22     8     9 1   
    23     8    40 1   
    24     8    41 1   
    25     9    10 1   
    26     9    42 1   
    27     9    43 1   
    28    10    11 1   
    29    10    44 1   
    30    11    20 2   
    31    11    61 1   
    32    12    13 1   
    33    12    45 1   
    34    12    46 1   
    35    12    61 1   
    36    13    21 ar  
    37    13    28 ar  
    38    15    16 1   
    39    15    19 1   
    40    15    47 1   
    41    16    17 1   
    42    16    48 1   
    43    16    49 1   
    44    17    18 1   
    45    17    50 1   
    46    18    51 1   
    47    18    52 1   
    48    19    53 1   
    49    19    54 1   
    50    21    22 1   
    51    21    24 ar  
    52    22    23 1   
    53    22    55 1   
    54    22    56 1   
    55    23    57 1   
    56    24    25 ar  
    57    24    58 1   
    58    25    26 ar  
    59    25    59 1   
    60    26    27 1   
    61    26    28 ar  
    62    28    60 1   
    63    37    61 1   
@<TRIPOS>SUBSTRUCTURE
     1 6TH         1 TEMP              0 ****  ****    0 ROOT
