@<TRIPOS>MOLECULE
6TI
   60    64     1     0     0
SMALL
abcg2


@<TRIPOS>ATOM
      1 N          -11.4640   -13.0620    13.2250 n          1 6TI      -0.400800
      2 CA         -11.7900   -14.4800    13.3650 c5         1 6TI       0.030700
      3 C          -10.5210   -15.3370    13.4060 c          1 6TI       0.603100
      4 O           -9.4870   -14.9470    13.9290 o          1 6TI      -0.571100
      5 CB         -12.5430   -14.5530    14.7070 c5         1 6TI      -0.083400
      6 CG         -11.9690   -13.3790    15.5020 c5         1 6TI      -0.095400
      7 CD         -11.7920   -12.2980    14.4400 c5         1 6TI       0.112000
      8 CAA        -10.8780   -12.6490    12.0790 c          1 6TI       0.614100
      9 CAI         -9.8020   -17.6600    12.8500 ca         1 6TI       0.056000
     10 CAJ         -8.4970   -17.6180    13.3190 ca         1 6TI      -0.183000
     11 CAK         -7.6680   -18.7570    13.2550 ca         1 6TI      -0.040000
     12 CAL         -8.0900   -19.9620    12.7330 ca         1 6TI      -0.169000
     13 CAM         -9.4070   -20.0000    12.2580 ca         1 6TI      -0.003200
     14 CAN        -10.2670   -18.8800    12.3050 ca         1 6TI      -0.279900
     15 CAO        -11.4880   -19.3430    11.7360 cc         1 6TI       0.354800
     16 CAT        -10.5270   -11.1520    11.9030 c5         1 6TI      -0.064700
     17 CAU         -9.4870   -10.7460    12.9350 ca         1 6TI      -0.117300
     18 CAV         -8.3520   -11.5470    13.1090 ca         1 6TI      -0.066000
     19 CAW         -7.3640   -11.2150    14.0180 ca         1 6TI      -0.166500
     20 CAX         -7.4810   -10.0530    14.7870 ca         1 6TI       0.136100
     21 CAY         -8.5990    -9.2390    14.6260 ca         1 6TI      -0.166500
     22 CAZ         -9.5860    -9.5940    13.7070 ca         1 6TI      -0.066000
     23 CBB         -6.5450    -8.6360    16.4710 c3         1 6TI       0.148900
     24 CBC         -9.9920   -10.9230    10.4670 c5         1 6TI      -0.066400
     25 CBD        -11.2310   -10.8520     9.5490 c5         1 6TI      -0.078900
     26 CBE        -12.4410   -10.6700    10.4990 c5         1 6TI      -0.078900
     27 CBF        -11.8260   -10.3160    11.8570 c5         1 6TI      -0.066400
     28 NAH        -10.6940   -16.5810    12.8770 ns         1 6TI      -0.136000
     29 NAP        -11.3910   -20.6110    11.3770 nd         1 6TI      -0.517100
     30 NAQ        -10.1340   -21.0020    11.6940 na         1 6TI      -0.076400
     31 OAS        -10.6370   -13.4720    11.1910 o          1 6TI      -0.616100
     32 OBA         -6.4650    -9.8060    15.6610 os         1 6TI      -0.348100
     33 H1         -12.4150   -14.8030    12.5330 h1         1 6TI       0.073700
     34 H2         -13.6080   -14.4050    14.5210 hc         1 6TI       0.058700
     35 H3         -12.4150   -15.5160    15.1980 hc         1 6TI       0.058700
     36 H4         -12.6240   -13.0530    16.3090 hc         1 6TI       0.065200
     37 H5         -11.0020   -13.6470    15.9270 hc         1 6TI       0.065200
     38 H6         -11.0030   -11.5920    14.6810 h1         1 6TI       0.054200
     39 H7         -12.7230   -11.7450    14.2990 h1         1 6TI       0.054200
     40 H8          -8.1130   -16.7040    13.7370 ha         1 6TI       0.151000
     41 H9          -6.6570   -18.6710    13.6350 ha         1 6TI       0.115000
     42 H10         -7.4440   -20.8280    12.6900 ha         1 6TI       0.121000
     43 H11        -12.4120   -18.8100    11.5790 h4         1 6TI       0.041800
     44 H12         -8.2440   -12.4550    12.5300 ha         1 6TI       0.121500
     45 H13         -6.4940   -11.8460    14.1480 ha         1 6TI       0.124000
     46 H14         -8.7220    -8.3390    15.2100 ha         1 6TI       0.124000
     47 H15        -10.4510    -8.9510    13.6180 ha         1 6TI       0.121500
     48 H16         -5.6470    -8.6350    17.0840 h1         1 6TI       0.041033
     49 H17         -6.5690    -7.7330    15.8560 h1         1 6TI       0.041033
     50 H18         -7.4280    -8.6620    17.1140 h1         1 6TI       0.041033
     51 H19         -9.2840   -11.6940    10.1730 hc         1 6TI       0.052200
     52 H20         -9.4660    -9.9670    10.4700 hc         1 6TI       0.052200
     53 H21        -11.1460   -10.0170     8.8520 hc         1 6TI       0.046450
     54 H22        -11.3360   -11.7600     8.9550 hc         1 6TI       0.046450
     55 H23        -13.1360    -9.9040    10.1550 hc         1 6TI       0.046450
     56 H24        -13.0030   -11.6030    10.5790 hc         1 6TI       0.046450
     57 H25        -11.5530    -9.2590    11.8690 hc         1 6TI       0.052200
     58 H26        -12.5000   -10.4900    12.6910 hc         1 6TI       0.052200
     59 H27        -11.5990   -16.7560    12.4670 hn         1 6TI       0.153000
     60 H28         -9.8430   -21.9480    11.5080 hn         1 6TI       0.376000
@<TRIPOS>BOND
     1     1     2 1   
     2     1     7 1   
     3     1     8 1   
     4     2     3 1   
     5     2     5 1   
     6     2    33 1   
     7     3     4 2   
     8     3    28 1   
     9     5     6 1   
    10     5    34 1   
    11     5    35 1   
    12     6     7 1   
    13     6    36 1   
    14     6    37 1   
    15     7    38 1   
    16     7    39 1   
    17     8    16 1   
    18     8    31 2   
    19     9    10 ar  
    20     9    14 ar  
    21     9    28 1   
    22    10    11 ar  
    23    10    40 1   
    24    11    12 ar  
    25    11    41 1   
    26    12    13 ar  
    27    12    42 1   
    28    13    14 ar  
    29    13    30 1   
    30    14    15 1   
    31    15    29 2   
    32    15    43 1   
    33    16    17 1   
    34    16    24 1   
    35    16    27 1   
    36    17    18 ar  
    37    17    22 ar  
    38    18    19 ar  
    39    18    44 1   
    40    19    20 ar  
    41    19    45 1   
    42    20    21 ar  
    43    20    32 1   
    44    21    22 ar  
    45    21    46 1   
    46    22    47 1   
    47    23    32 1   
    48    23    48 1   
    49    23    49 1   
    50    23    50 1   
    51    24    25 1   
    52    24    51 1   
    53    24    52 1   
    54    25    26 1   
    55    25    53 1   
    56    25    54 1   
    57    26    27 1   
    58    26    55 1   
    59    26    56 1   
    60    27    57 1   
    61    27    58 1   
    62    28    59 1   
    63    29    30 1   
    64    30    60 1   
@<TRIPOS>SUBSTRUCTURE
     1 6TI         1 TEMP              0 ****  ****    0 ROOT
