@<TRIPOS>MOLECULE
6TI
   60    64     1     0     0
SMALL
No Charge or Current Charge


@<TRIPOS>ATOM
      1 N          -11.0490   -13.1700    13.0570 n          1 6TI      -0.400800
      2 CA         -11.3810   -14.6200    13.0980 c5         1 6TI       0.030700
      3 C          -10.1460   -15.5780    13.2150 c          1 6TI       0.603100
      4 O           -9.0000   -15.2640    13.5230 o          1 6TI      -0.571100
      5 CB         -12.2300   -14.6670    14.4020 c5         1 6TI      -0.083400
      6 CG         -11.4150   -13.7480    15.3460 c5         1 6TI      -0.095400
      7 CD         -11.0090   -12.5700    14.4180 c5         1 6TI       0.112000
      8 CAA        -10.4190   -12.6070    11.9170 c          1 6TI       0.614100
      9 CAI         -9.8730   -18.0970    12.8260 ca         1 6TI       0.056000
     10 CAJ         -8.4930   -18.2590    13.1120 ca         1 6TI      -0.183000
     11 CAK         -7.8770   -19.5330    13.0270 ca         1 6TI      -0.040000
     12 CAL         -8.6300   -20.6670    12.6560 ca         1 6TI      -0.169000
     13 CAM         -9.9860   -20.4750    12.3810 ca         1 6TI      -0.003200
     14 CAN        -10.5770   -19.2550    12.4620 ca         1 6TI      -0.279900
     15 CAO        -11.9590   -19.4720    12.1100 cc         1 6TI       0.354800
     16 CAT        -10.4120   -11.0240    11.8950 c5         1 6TI      -0.064700
     17 CAU         -9.4520   -10.3800    12.9260 ca         1 6TI      -0.117300
     18 CAV         -8.0830   -10.7230    12.8770 ca         1 6TI      -0.066000
     19 CAW         -7.1690   -10.1870    13.7990 ca         1 6TI      -0.166500
     20 CAX         -7.5990    -9.3010    14.7950 ca         1 6TI       0.136100
     21 CAY         -8.9640    -8.9560    14.8660 ca         1 6TI      -0.166500
     22 CAZ         -9.8790    -9.4910    13.9430 ca         1 6TI      -0.066000
     23 CBB         -7.0000    -7.8960    16.7340 c3         1 6TI       0.148900
     24 CBC         -9.9640   -10.4800    10.4960 c5         1 6TI      -0.066400
     25 CBD        -11.2130   -10.6980     9.5820 c5         1 6TI      -0.078900
     26 CBE        -12.4190   -10.8600    10.5610 c5         1 6TI      -0.078900
     27 CBF        -11.8500   -10.4010    11.9290 c5         1 6TI      -0.066400
     28 NAH        -10.5660   -16.8610    12.8870 ns         1 6TI      -0.136000
     29 NAP        -12.2060   -20.7610    11.8270 nd         1 6TI      -0.517100
     30 NAQ        -10.9580   -21.3750    12.0020 na         1 6TI      -0.076400
     31 OAS        -10.0170   -13.3300    11.0110 o          1 6TI      -0.616100
     32 OBA         -6.6570    -8.8080    15.6750 os         1 6TI      -0.348100
     33 H1         -11.9760   -14.9170    12.2230 h1         1 6TI       0.073700
     34 H2         -13.2330   -14.2580    14.2280 hc         1 6TI       0.058700
     35 H3         -12.3600   -15.6790    14.8010 hc         1 6TI       0.058700
     36 H4         -11.9950   -13.4110    16.2130 hc         1 6TI       0.065200
     37 H5         -10.5290   -14.2630    15.7350 hc         1 6TI       0.065200
     38 H6         -10.0100   -12.2010    14.6810 h1         1 6TI       0.054200
     39 H7         -11.7230   -11.7440    14.5120 h1         1 6TI       0.054200
     40 H8          -7.8770   -17.4130    13.4010 ha         1 6TI       0.151000
     41 H9          -6.8170   -19.6380    13.2500 ha         1 6TI       0.115000
     42 H10         -8.1700   -21.6500    12.5870 ha         1 6TI       0.121000
     43 H11        -12.7900   -18.7810    12.0430 h4         1 6TI       0.041800
     44 H12         -7.7200   -11.4150    12.1200 ha         1 6TI       0.121500
     45 H13         -6.1190   -10.4630    13.7420 ha         1 6TI       0.124000
     46 H14         -9.3340    -8.2790    15.6300 ha         1 6TI       0.124000
     47 H15        -10.9240    -9.2110    14.0450 ha         1 6TI       0.121500
     48 H16         -6.1050    -7.6300    17.3100 h1         1 6TI       0.041033
     49 H17         -7.4300    -6.9710    16.3280 h1         1 6TI       0.041033
     50 H18         -7.7250    -8.3500    17.4210 h1         1 6TI       0.041033
     51 H19         -9.0710   -10.9790    10.1030 hc         1 6TI       0.052200
     52 H20         -9.7210    -9.4110    10.5490 hc         1 6TI       0.052200
     53 H21        -11.3540    -9.8500     8.9030 hc         1 6TI       0.046450
     54 H22        -11.1010   -11.5880     8.9520 hc         1 6TI       0.046450
     55 H23        -13.2830   -10.2600    10.2540 hc         1 6TI       0.046450
     56 H24        -12.7590   -11.9020    10.6010 hc         1 6TI       0.046450
     57 H25        -11.8270    -9.3050    11.9710 hc         1 6TI       0.052200
     58 H26        -12.4740   -10.7430    12.7600 hc         1 6TI       0.052200
     59 H27        -11.5470   -16.9310    12.6540 hn         1 6TI       0.153000
     60 H28        -10.8260   -22.3750    11.8550 hn         1 6TI       0.376000
@<TRIPOS>BOND
     1     1     2 1   
     2     1     7 1   
     3     1     8 1   
     4     2     3 1   
     5     2     5 1   
     6     2    33 1   
     7     3     4 2   
     8     3    28 1   
     9     5     6 1   
    10     5    34 1   
    11     5    35 1   
    12     6     7 1   
    13     6    36 1   
    14     6    37 1   
    15     7    38 1   
    16     7    39 1   
    17     8    16 1   
    18     8    31 2   
    19     9    10 ar  
    20     9    14 ar  
    21     9    28 1   
    22    10    11 ar  
    23    10    40 1   
    24    11    12 ar  
    25    11    41 1   
    26    12    13 ar  
    27    12    42 1   
    28    13    14 ar  
    29    13    30 1   
    30    14    15 1   
    31    15    29 2   
    32    15    43 1   
    33    16    17 1   
    34    16    24 1   
    35    16    27 1   
    36    17    18 ar  
    37    17    22 ar  
    38    18    19 ar  
    39    18    44 1   
    40    19    20 ar  
    41    19    45 1   
    42    20    21 ar  
    43    20    32 1   
    44    21    22 ar  
    45    21    46 1   
    46    22    47 1   
    47    23    32 1   
    48    23    48 1   
    49    23    49 1   
    50    23    50 1   
    51    24    25 1   
    52    24    51 1   
    53    24    52 1   
    54    25    26 1   
    55    25    53 1   
    56    25    54 1   
    57    26    27 1   
    58    26    55 1   
    59    26    56 1   
    60    27    57 1   
    61    27    58 1   
    62    28    59 1   
    63    29    30 1   
    64    30    60 1   
@<TRIPOS>SUBSTRUCTURE
     1 6TI         1 TEMP              0 ****  ****    0 ROOT
