@<TRIPOS>MOLECULE
6TJ
   29    31     1     0     0
SMALL
bcc


@<TRIPOS>ATOM
      1 O01         -3.4300    -2.0420    -0.9930 o          1 6TJ      -0.804300
      2 C02         -3.0460    -1.5540     0.0830 c          1 6TJ       0.935200
      3 O03         -3.0010    -2.0890     1.2020 o          1 6TJ      -0.804300
      4 C04         -2.6270    -0.0950     0.0360 ca         1 6TJ      -0.028600
      5 C05         -3.5900     0.9120     0.0030 ca         1 6TJ      -0.131000
      6 C06         -3.2350     2.2590    -0.0010 ca         1 6TJ      -0.123000
      7 C07         -1.9030     2.6580     0.0150 ca         1 6TJ      -0.160000
      8 C08         -0.9450     1.6630     0.0290 ca         1 6TJ      -0.102300
      9 C09          0.5420     1.7790     0.0360 c5         1 6TJ       0.146300
     10 N10          0.9850     0.3920     0.0170 n          1 6TJ      -0.400000
     11 C11         -0.0740    -0.4910     0.0240 c          1 6TJ       0.733100
     12 O12         -0.0070    -1.7040     0.0040 o          1 6TJ      -0.561500
     13 C13         -1.3000     0.3250     0.0420 ca         1 6TJ      -0.152600
     14 C14          2.3510     0.0800    -0.0150 ca         1 6TJ       0.112600
     15 C15          3.2830     1.1210     0.0760 ca         1 6TJ      -0.181000
     16 C16          4.6440     0.8600     0.0400 ca         1 6TJ      -0.106500
     17 C17          5.1150    -0.4380    -0.0860 ca         1 6TJ      -0.181000
     18 C18          4.1950    -1.4720    -0.1780 ca         1 6TJ      -0.106500
     19 C19          2.8300    -1.2300    -0.1450 ca         1 6TJ      -0.181000
     20 H2          -4.6400     0.6480    -0.0130 ha         1 6TJ       0.135000
     21 H3          -4.0160     3.0090    -0.0180 ha         1 6TJ       0.107000
     22 H4          -1.6350     3.7060     0.0100 ha         1 6TJ       0.112000
     23 H5           0.9160     2.3200    -0.8370 h1         1 6TJ       0.046700
     24 H6           0.9000     2.2960     0.9300 h1         1 6TJ       0.046700
     25 H7           2.9630     2.1480     0.1760 ha         1 6TJ       0.149000
     26 H8           5.3380     1.6870     0.1130 ha         1 6TJ       0.118000
     27 H9           6.1780    -0.6390    -0.1140 ha         1 6TJ       0.118000
     28 H10          4.5370    -2.4940    -0.2820 ha         1 6TJ       0.118000
     29 H11          2.1500    -2.0610    -0.2200 ha         1 6TJ       0.149000
@<TRIPOS>BOND
     1     1     2 1   
     2     2     3 1   
     3     2     4 1   
     4     4     5 ar  
     5     4    13 ar  
     6     5     6 ar  
     7     5    20 1   
     8     6     7 ar  
     9     6    21 1   
    10     7     8 ar  
    11     7    22 1   
    12     8     9 1   
    13     8    13 ar  
    14     9    10 1   
    15     9    23 1   
    16     9    24 1   
    17    10    11 1   
    18    10    14 1   
    19    11    12 2   
    20    11    13 1   
    21    14    15 ar  
    22    14    19 ar  
    23    15    16 ar  
    24    15    25 1   
    25    16    17 ar  
    26    16    26 1   
    27    17    18 ar  
    28    17    27 1   
    29    18    19 ar  
    30    18    28 1   
    31    19    29 1   
@<TRIPOS>SUBSTRUCTURE
     1 6TJ         1 TEMP              0 ****  ****    0 ROOT
