@<TRIPOS>MOLECULE
6TJ
   29    31     1     0     0
SMALL
No Charge or Current Charge


@<TRIPOS>ATOM
      1 O01         -2.8450    -2.3330    -0.4610 o          1 6TJ      -0.699000
      2 C02         -2.9860    -1.5460     0.4660 c          1 6TJ       0.724600
      3 O03         -3.4850    -1.8470     1.5430 o          1 6TJ      -0.699000
      4 C04         -2.6360    -0.0950     0.2270 ca         1 6TJ      -0.028600
      5 C05         -3.6580     0.8790     0.1390 ca         1 6TJ      -0.113000
      6 C06         -3.3440     2.2340    -0.1030 ca         1 6TJ      -0.105000
      7 C07         -2.0040     2.6380    -0.2580 ca         1 6TJ      -0.142000
      8 C08         -0.9920     1.6720    -0.1640 ca         1 6TJ      -0.102300
      9 C09          0.5080     1.8930    -0.2800 c5         1 6TJ       0.146300
     10 N10          1.0120     0.4920    -0.1070 n          1 6TJ      -0.240400
     11 C11         -0.0390    -0.4210     0.1510 c          1 6TJ       0.590600
     12 O12          0.0710    -1.6080     0.4280 o          1 6TJ      -0.486000
     13 C13         -1.3030     0.3460     0.0760 ca         1 6TJ      -0.152600
     14 C14          2.4150     0.1690    -0.1890 ca         1 6TJ       0.020000
     15 C15          3.3640     1.0640     0.3530 ca         1 6TJ      -0.163000
     16 C16          4.7250     0.7210     0.4210 ca         1 6TJ      -0.088500
     17 C17          5.1530    -0.5440    -0.0100 ca         1 6TJ      -0.163000
     18 C18          4.2150    -1.4690    -0.4890 ca         1 6TJ      -0.088500
     19 C19          2.8540    -1.1230    -0.5540 ca         1 6TJ      -0.163000
     20 H2          -4.6970     0.5800     0.2520 ha         1 6TJ       0.117000
     21 H3          -4.1420     2.9700    -0.1710 ha         1 6TJ       0.089000
     22 H4          -1.7590     3.6820    -0.4430 ha         1 6TJ       0.094000
     23 H5           0.7830     2.3030    -1.2600 h1         1 6TJ       0.046700
     24 H6           0.8690     2.5620     0.5110 h1         1 6TJ       0.046700
     25 H7           3.0560     2.0370     0.7250 ha         1 6TJ       0.131000
     26 H8           5.4460     1.4310     0.8210 ha         1 6TJ       0.100000
     27 H9           6.2050    -0.8120     0.0450 ha         1 6TJ       0.100000
     28 H10          4.5400    -2.4590    -0.8040 ha         1 6TJ       0.100000
     29 H11          2.1500    -1.8610    -0.9290 ha         1 6TJ       0.131000
@<TRIPOS>BOND
     1     1     2 1   
     2     2     3 1   
     3     2     4 1   
     4     4     5 ar  
     5     4    13 ar  
     6     5     6 ar  
     7     5    20 1   
     8     6     7 ar  
     9     6    21 1   
    10     7     8 ar  
    11     7    22 1   
    12     8     9 1   
    13     8    13 ar  
    14     9    10 1   
    15     9    23 1   
    16     9    24 1   
    17    10    11 1   
    18    10    14 1   
    19    11    12 2   
    20    11    13 1   
    21    14    15 ar  
    22    14    19 ar  
    23    15    16 ar  
    24    15    25 1   
    25    16    17 ar  
    26    16    26 1   
    27    17    18 ar  
    28    17    27 1   
    29    18    19 ar  
    30    18    28 1   
    31    19    29 1   
@<TRIPOS>SUBSTRUCTURE
     1 6TJ         1 TEMP              0 ****  ****    0 ROOT
