@<TRIPOS>MOLECULE
6TL
   80    85     1     0     0
SMALL
No Charge or Current Charge


@<TRIPOS>ATOM
      1 C1          -5.0150     4.4610    -2.1080 ca         1 6TL      -0.141000
      2 C2          -5.4670     5.6960    -1.5850 ca         1 6TL      -0.091000
      3 C3          -6.0630     5.7530    -0.3070 ca         1 6TL      -0.130000
      4 N6           8.2100     2.8930     0.2650 n3         1 6TL      -0.718600
      5 C7          -6.0190     2.3510     0.8890 cc         1 6TL      -0.143400
      6 C8          -6.6280     3.0010     1.9580 cd         1 6TL      -0.156100
      7 C9          -5.6930     0.8840     0.7750 c3         1 6TL       0.000800
      8 C10         -4.1750     0.5990     0.8750 c3         1 6TL       0.167800
      9 C11         -2.3470    -1.0310     1.2060 c6         1 6TL       0.160300
     10 C12         -1.9320    -2.5370     1.2860 c6         1 6TL       0.193800
     11 C13         -3.7590    -3.0930    -0.3050 c6         1 6TL       0.193800
     12 C14         -4.1480    -1.5790    -0.3570 c6         1 6TL       0.160300
     13 C15         -1.6350    -4.4870    -0.2850 ca         1 6TL       0.290000
     14 C16         -2.3260    -5.7150    -0.2040 ca         1 6TL      -0.159000
     15 C19          0.3750    -5.7240    -0.9380 ca         1 6TL      -0.078000
     16 C20         -0.2570    -4.4850    -0.6640 cp         1 6TL      -0.060000
     17 C21          0.5300    -3.2180    -0.8060 cp         1 6TL      -0.084000
     18 C22          1.8310    -3.1010    -0.2670 ca         1 6TL      -0.028000
     19 C24          1.9280    -0.8410    -1.1200 ca         1 6TL       0.353900
     20 C27          5.9100    -0.2410     0.4660 c3         1 6TL       0.102000
     21 C30          7.4540     4.0330     0.8280 c5         1 6TL       0.157800
     22 C31          8.2950     5.2470     0.3480 c5         1 6TL      -0.079400
     23 C32          9.7350     4.6670     0.1740 c5         1 6TL      -0.079400
     24 C33          9.5990     3.2000     0.6580 c5         1 6TL       0.157800
     25 O            4.4700    -2.6650     0.7640 o          1 6TL      -0.599100
     26 N5           4.5660    -0.5450    -0.0290 ns         1 6TL      -0.502900
     27 C28          6.3230     1.2040     0.1360 c3         1 6TL      -0.097400
     28 C29          7.7380     1.5440     0.6490 c3         1 6TL       0.174800
     29 C23          2.5470    -1.8940    -0.4190 ca         1 6TL      -0.210600
     30 N4           0.6900    -0.9300    -1.6520 nb         1 6TL      -0.677000
     31 C25          0.0130    -2.0910    -1.4930 ca         1 6TL       0.382900
     32 C18         -0.3290    -6.9340    -0.8510 ca         1 6TL      -0.131000
     33 C17         -1.6810    -6.9300    -0.4860 ca         1 6TL      -0.083000
     34 N3          -2.3220    -3.2970     0.0590 nh         1 6TL      -0.800400
     35 N2          -3.8000    -0.8390     0.9010 n3         1 6TL      -0.722600
     36 C5          -5.7470     3.3690    -0.0870 ca         1 6TL      -0.096800
     37 C6          -5.1540     3.2760    -1.3550 ca         1 6TL      -0.061000
     38 N1          -6.7380     4.3850     1.6740 na         1 6TL      -0.224700
     39 C4          -6.1870     4.5590     0.4180 ca         1 6TL      -0.047200
     40 H1          -4.5590     4.4250    -3.0940 ha         1 6TL       0.111000
     41 H2          -5.3570     6.6060    -2.1720 ha         1 6TL       0.109000
     42 H3          -6.4160     6.6970     0.1020 ha         1 6TL       0.112000
     43 H5          -6.9860     2.5820     2.8960 h4         1 6TL       0.211000
     44 H6          -6.2110     0.3280     1.5660 hc         1 6TL       0.049200
     45 H7          -6.0790     0.5080    -0.1790 hc         1 6TL       0.049200
     46 H8          -3.6670     1.1020     0.0410 h1         1 6TL       0.036200
     47 H9          -3.8170     1.0780     1.7970 h1         1 6TL       0.036200
     48 H10         -2.0930    -0.5520     2.1620 h1         1 6TL       0.040450
     49 H11         -1.7340    -0.5440     0.4330 h1         1 6TL       0.040450
     50 H12         -0.8460    -2.5910     1.4480 h1         1 6TL       0.043200
     51 H13         -2.4120    -2.9880     2.1660 h1         1 6TL       0.043200
     52 H14         -4.4050    -3.5950     0.4300 h1         1 6TL       0.043200
     53 H15         -3.9680    -3.5400    -1.2880 h1         1 6TL       0.043200
     54 H16         -3.6360    -1.1190    -1.2160 h1         1 6TL       0.040450
     55 H17         -5.2260    -1.5190    -0.5590 h1         1 6TL       0.040450
     56 H18         -3.3680    -5.7360     0.0990 ha         1 6TL       0.116000
     57 H19          1.4200    -5.7430    -1.2370 ha         1 6TL       0.120000
     58 H20          2.2690    -3.9380     0.2740 ha         1 6TL       0.140000
     59 H21          2.4290     0.1140    -1.2720 h4         1 6TL       0.019100
     60 H22          5.9290    -0.3890     1.5540 h1         1 6TL       0.051700
     61 H23          6.6220    -0.9410     0.0090 h1         1 6TL       0.051700
     62 H24          6.4200     4.0840     0.4590 h1         1 6TL       0.034950
     63 H25          7.4230     3.9850     1.9260 h1         1 6TL       0.034950
     64 H26          7.9160     5.6380    -0.6030 hc         1 6TL       0.047200
     65 H27          8.2610     6.0700     1.0710 hc         1 6TL       0.047200
     66 H28         10.0440     4.7030    -0.8770 hc         1 6TL       0.047200
     67 H29         10.4850     5.2190     0.7520 hc         1 6TL       0.047200
     68 H30          9.7330     3.1260     1.7470 h1         1 6TL       0.034950
     69 H31         10.3310     2.5380     0.1760 h1         1 6TL       0.034950
     70 H32          4.0690     0.1720    -0.5410 hn         1 6TL       0.315500
     71 H33          6.2920     1.3510    -0.9510 hc         1 6TL       0.051200
     72 H34          5.5950     1.8920     0.5810 hc         1 6TL       0.051200
     73 H35          8.4330     0.7940     0.2460 h1         1 6TL       0.032200
     74 H36          7.7520     1.4400     1.7430 h1         1 6TL       0.032200
     75 H37         -0.9760    -2.1290    -1.9490 h4         1 6TL       0.035100
     76 H38          0.1740    -7.8740    -1.0700 ha         1 6TL       0.118000
     77 H39         -2.2290    -7.8670    -0.4140 ha         1 6TL       0.113000
     78 H41         -4.8130     2.3220    -1.7500 ha         1 6TL       0.113000
     79 H42         -7.1380     5.1030     2.2710 hn         1 6TL       0.349000
     80 C26          3.9280    -1.7520     0.1560 c          1 6TL       0.616700
@<TRIPOS>BOND
     1     1     2 ar  
     2     1    37 ar  
     3     1    40 1   
     4     2     3 ar  
     5     2    41 1   
     6     3    39 ar  
     7     3    42 1   
     8     4    21 1   
     9     4    24 1   
    10     4    28 1   
    11     5     6 2   
    12     5     7 1   
    13     5    36 1   
    14     6    38 1   
    15     6    43 1   
    16     7     8 1   
    17     7    44 1   
    18     7    45 1   
    19     8    35 1   
    20     8    46 1   
    21     8    47 1   
    22     9    10 1   
    23     9    35 1   
    24     9    48 1   
    25     9    49 1   
    26    10    34 1   
    27    10    50 1   
    28    10    51 1   
    29    11    12 1   
    30    11    34 1   
    31    11    52 1   
    32    11    53 1   
    33    12    35 1   
    34    12    54 1   
    35    12    55 1   
    36    13    14 ar  
    37    13    16 ar  
    38    13    34 1   
    39    14    33 ar  
    40    14    56 1   
    41    15    16 ar  
    42    15    32 ar  
    43    15    57 1   
    44    16    17 1   
    45    17    18 ar  
    46    17    31 ar  
    47    18    29 ar  
    48    18    58 1   
    49    19    29 ar  
    50    19    30 ar  
    51    19    59 1   
    52    20    26 1   
    53    20    27 1   
    54    20    60 1   
    55    20    61 1   
    56    21    22 1   
    57    21    62 1   
    58    21    63 1   
    59    22    23 1   
    60    22    64 1   
    61    22    65 1   
    62    23    24 1   
    63    23    66 1   
    64    23    67 1   
    65    24    68 1   
    66    24    69 1   
    67    25    80 2   
    68    26    70 1   
    69    26    80 1   
    70    27    28 1   
    71    27    71 1   
    72    27    72 1   
    73    28    73 1   
    74    28    74 1   
    75    29    80 1   
    76    30    31 ar  
    77    31    75 1   
    78    32    33 ar  
    79    32    76 1   
    80    33    77 1   
    81    36    37 ar  
    82    36    39 ar  
    83    37    78 1   
    84    38    39 1   
    85    38    79 1   
@<TRIPOS>SUBSTRUCTURE
     1 6TL         1 TEMP              0 ****  ****    0 ROOT
