@<TRIPOS>MOLECULE
6TL
   80    85     1     0     0
SMALL
abcg2


@<TRIPOS>ATOM
      1 C1          -5.6530     3.9730    -2.4180 ca         1 6TL      -0.141000
      2 C2          -5.9130     5.2950    -2.0180 ca         1 6TL      -0.091000
      3 C3          -5.9890     5.6390    -0.6820 ca         1 6TL      -0.130000
      4 N6           7.7070     2.9180     0.4230 n3         1 6TL      -0.718600
      5 C7          -5.4020     2.5240     1.0810 cc         1 6TL      -0.143400
      6 C8          -5.5870     3.4060     2.1080 cd         1 6TL      -0.156100
      7 C9          -5.0970     1.0660     1.1810 c3         1 6TL       0.000800
      8 C10         -3.6370     0.7660     0.8360 c3         1 6TL       0.167800
      9 C11         -1.8770    -0.8540     0.9690 c6         1 6TL       0.160300
     10 C12         -1.5480    -2.3260     1.1050 c6         1 6TL       0.193800
     11 C13         -3.5520    -2.8770    -0.0760 c6         1 6TL       0.193800
     12 C14         -3.8670    -1.3980    -0.2070 c6         1 6TL       0.160300
     13 C15         -1.6090    -4.3510    -0.2320 ca         1 6TL       0.290000
     14 C16         -2.3760    -5.4980    -0.0210 ca         1 6TL      -0.159000
     15 C19          0.2380    -5.7750    -0.8710 ca         1 6TL      -0.078000
     16 C20         -0.2850    -4.4980    -0.6900 cp         1 6TL      -0.060000
     17 C21          0.5470    -3.3240    -1.0220 cp         1 6TL      -0.084000
     18 C22          1.8370    -3.1790    -0.5330 ca         1 6TL      -0.028000
     19 C24          2.0080    -1.1310    -1.7360 ca         1 6TL       0.353900
     20 C27          5.7330    -0.3350     0.2990 c3         1 6TL       0.102000
     21 C30          6.9570     3.8360     1.2640 c5         1 6TL       0.157800
     22 C31          7.6760     5.1680     1.0580 c5         1 6TL      -0.079400
     23 C32          9.1320     4.7680     0.7410 c5         1 6TL      -0.079400
     24 C33          9.0990     3.2370     0.6880 c5         1 6TL       0.157800
     25 O            4.6650    -2.8950    -0.1200 o          1 6TL      -0.599100
     26 N5           4.4010    -0.6540    -0.1720 ns         1 6TL      -0.502900
     27 C28          6.0000     1.1530     0.1430 c3         1 6TL      -0.097400
     28 C29          7.3980     1.5200     0.6190 c3         1 6TL       0.174800
     29 C23          2.5820    -2.0550    -0.8740 ca         1 6TL      -0.210600
     30 N4           0.7880    -1.2710    -2.2420 nb         1 6TL      -0.677000
     31 C25          0.0790    -2.3300    -1.8870 ca         1 6TL       0.382900
     32 C18         -0.5310    -6.9090    -0.6480 ca         1 6TL      -0.131000
     33 C17         -1.8460    -6.7630    -0.2360 ca         1 6TL      -0.083000
     34 N3          -2.1180    -3.0640    -0.0120 nh         1 6TL      -0.800400
     35 N2          -3.3120    -0.6460     0.9020 n3         1 6TL      -0.722600
     36 C5          -5.5330     3.2900    -0.1240 ca         1 6TL      -0.096800
     37 C6          -5.4610     2.9730    -1.4850 ca         1 6TL      -0.061000
     38 N1          -5.8220     4.6610     1.6190 na         1 6TL      -0.224700
     39 C4          -5.7980     4.6250     0.2560 ca         1 6TL      -0.047200
     40 H1          -5.6000     3.7410    -3.4740 ha         1 6TL       0.111000
     41 H2          -6.0560     6.0590    -2.7710 ha         1 6TL       0.109000
     42 H3          -6.1910     6.6590    -0.3760 ha         1 6TL       0.112000
     43 H5          -5.5700     3.2270     3.1720 h4         1 6TL       0.211000
     44 H6          -5.3000     0.7080     2.1930 hc         1 6TL       0.049200
     45 H7          -5.7680     0.5130     0.5170 hc         1 6TL       0.049200
     46 H8          -3.3900     1.1910    -0.1520 h1         1 6TL       0.036200
     47 H9          -3.0070     1.2900     1.5600 h1         1 6TL       0.036200
     48 H10         -1.4810    -0.3200     1.8370 h1         1 6TL       0.040450
     49 H11         -1.3610    -0.4570     0.0760 h1         1 6TL       0.040450
     50 H12         -0.4660    -2.4470     1.1260 h1         1 6TL       0.043200
     51 H13         -1.9360    -2.7080     2.0620 h1         1 6TL       0.043200
     52 H14         -4.0650    -3.2740     0.8140 h1         1 6TL       0.043200
     53 H15         -3.9470    -3.4030    -0.9460 h1         1 6TL       0.043200
     54 H16         -3.4850    -1.0290    -1.1750 h1         1 6TL       0.040450
     55 H17         -4.9520    -1.2860    -0.2270 h1         1 6TL       0.040450
     56 H18         -3.3950    -5.4090     0.3300 ha         1 6TL       0.116000
     57 H19          1.2560    -5.8820    -1.2270 ha         1 6TL       0.120000
     58 H20          2.2550    -3.9240     0.1330 ha         1 6TL       0.140000
     59 H21          2.5580    -0.2540    -2.0610 h4         1 6TL       0.019100
     60 H22          5.8500    -0.6320     1.3470 h1         1 6TL       0.051700
     61 H23          6.4610    -0.9090    -0.2770 h1         1 6TL       0.051700
     62 H24          5.9040     3.8770     0.9800 h1         1 6TL       0.034950
     63 H25          7.0010     3.5360     2.3250 h1         1 6TL       0.034950
     64 H26          7.2350     5.7110     0.2210 hc         1 6TL       0.047200
     65 H27          7.5950     5.8100     1.9350 hc         1 6TL       0.047200
     66 H28          9.4500     5.1880    -0.2130 hc         1 6TL       0.047200
     67 H29          9.8340     5.1200     1.4960 hc         1 6TL       0.047200
     68 H30          9.4320     2.8190     1.6530 h1         1 6TL       0.034950
     69 H31          9.7480     2.8200    -0.0860 h1         1 6TL       0.034950
     70 H32          3.7290     0.0950    -0.2030 hn         1 6TL       0.315500
     71 H33          5.8920     1.4390    -0.9070 hc         1 6TL       0.051200
     72 H34          5.2490     1.7140     0.7080 hc         1 6TL       0.051200
     73 H35          8.1270     0.9320     0.0530 h1         1 6TL       0.032200
     74 H36          7.5180     1.2260     1.6780 h1         1 6TL       0.032200
     75 H37         -0.9140    -2.4110    -2.3120 h4         1 6TL       0.035100
     76 H38         -0.1090    -7.8920    -0.8110 ha         1 6TL       0.118000
     77 H39         -2.4640    -7.6360    -0.0640 ha         1 6TL       0.113000
     78 H41         -5.2590     1.9570    -1.8050 ha         1 6TL       0.113000
     79 H42         -6.0020     5.4740     2.1830 hn         1 6TL       0.349000
     80 C26          3.9740    -1.9120    -0.3510 c          1 6TL       0.616700
@<TRIPOS>BOND
     1     1     2 ar  
     2     1    37 ar  
     3     1    40 1   
     4     2     3 ar  
     5     2    41 1   
     6     3    39 ar  
     7     3    42 1   
     8     4    21 1   
     9     4    24 1   
    10     4    28 1   
    11     5     6 2   
    12     5     7 1   
    13     5    36 1   
    14     6    38 1   
    15     6    43 1   
    16     7     8 1   
    17     7    44 1   
    18     7    45 1   
    19     8    35 1   
    20     8    46 1   
    21     8    47 1   
    22     9    10 1   
    23     9    35 1   
    24     9    48 1   
    25     9    49 1   
    26    10    34 1   
    27    10    50 1   
    28    10    51 1   
    29    11    12 1   
    30    11    34 1   
    31    11    52 1   
    32    11    53 1   
    33    12    35 1   
    34    12    54 1   
    35    12    55 1   
    36    13    14 ar  
    37    13    16 ar  
    38    13    34 1   
    39    14    33 ar  
    40    14    56 1   
    41    15    16 ar  
    42    15    32 ar  
    43    15    57 1   
    44    16    17 1   
    45    17    18 ar  
    46    17    31 ar  
    47    18    29 ar  
    48    18    58 1   
    49    19    29 ar  
    50    19    30 ar  
    51    19    59 1   
    52    20    26 1   
    53    20    27 1   
    54    20    60 1   
    55    20    61 1   
    56    21    22 1   
    57    21    62 1   
    58    21    63 1   
    59    22    23 1   
    60    22    64 1   
    61    22    65 1   
    62    23    24 1   
    63    23    66 1   
    64    23    67 1   
    65    24    68 1   
    66    24    69 1   
    67    25    80 2   
    68    26    70 1   
    69    26    80 1   
    70    27    28 1   
    71    27    71 1   
    72    27    72 1   
    73    28    73 1   
    74    28    74 1   
    75    29    80 1   
    76    30    31 ar  
    77    31    75 1   
    78    32    33 ar  
    79    32    76 1   
    80    33    77 1   
    81    36    37 ar  
    82    36    39 ar  
    83    37    78 1   
    84    38    39 1   
    85    38    79 1   
@<TRIPOS>SUBSTRUCTURE
     1 6TL         1 TEMP              0 ****  ****    0 ROOT
