@<TRIPOS>MOLECULE
6TM
   79    84     1     0     0
SMALL
No Charge or Current Charge


@<TRIPOS>ATOM
      1 C1          -1.6910     6.2480     4.6120 ca         1 6TM      -0.123000
      2 C2          -0.9970     6.8230     3.5410 ca         1 6TM      -0.090000
      3 C3          -0.4430     6.0010     2.5470 ca         1 6TM      -0.151000
      4 C7          -1.4890     2.5200     3.7860 cp         1 6TM       0.444500
      5 C8          -1.8510     1.7190     2.6690 ca         1 6TM      -0.157000
      6 C9          -1.9720     0.3140     2.7960 ca         1 6TM      -0.047600
      7 C10         -1.7620    -0.1700     4.1040 ca         1 6TM      -0.171000
      8 C11         -1.8040    -1.4980     4.6210 cc         1 6TM      -0.155100
      9 C14         -1.4550     0.6530     5.1720 ca         1 6TM       0.228000
     10 C16         -2.2690    -0.5990     1.6130 c          1 6TM       0.611700
     11 O17         -2.3940    -1.8110     1.7230 o          1 6TM      -0.601100
     12 N18         -2.3680     0.0140     0.3790 ns         1 6TM      -0.499900
     13 C19         -2.5840    -0.6880    -0.8890 c3         1 6TM       0.102000
     14 C20         -4.0560    -1.0830    -1.1050 c3         1 6TM      -0.098400
     15 C21         -4.2680    -1.8320    -2.4370 c3         1 6TM       0.174800
     16 C24         -7.3780    -3.3830    -3.8100 c5         1 6TM      -0.079400
     17 C31          1.1610     1.6680     0.8990 c6         1 6TM       0.163800
     18 C32          1.1560     2.8850     1.8830 c6         1 6TM       0.186800
     19 C33          1.0490     0.9060    -1.4750 c3         1 6TM       0.172800
     20 C34          2.2090    -0.1130    -1.4200 c3         1 6TM      -0.035100
     21 C35          1.9630    -1.2730    -2.3760 ca         1 6TM      -0.066300
     22 C6          -1.8330     4.8550     4.6830 ca         1 6TM      -0.094000
     23 C36          2.7050    -1.3960    -3.5670 ca         1 6TM      -0.100000
     24 C37          2.4470    -2.4560    -4.4550 ca         1 6TM      -0.096000
     25 C40          0.9640    -2.2220    -2.0820 ca         1 6TM      -0.096000
     26 C5          -1.2900     4.0030     3.6820 cp         1 6TM      -0.141500
     27 C4          -0.5750     4.5970     2.5990 ca         1 6TM       0.290000
     28 C38          1.4430    -3.3950    -4.1630 ca         1 6TM       0.115000
     29 C39          0.6980    -3.2770    -2.9710 ca         1 6TM       0.120000
     30 C25         -7.9520    -2.1000    -3.1280 c5         1 6TM      -0.079400
     31 C23         -5.8520    -3.1160    -3.8680 c5         1 6TM       0.157300
     32 C26         -6.6910    -1.2630    -2.7780 c5         1 6TM       0.157300
     33 C28          0.0480     4.2710     0.1550 c6         1 6TM       0.186800
     34 C29          0.0410     3.0440    -0.8100 c6         1 6TM       0.163800
     35 N12         -1.5270    -1.3900     5.9750 na         1 6TM       0.015500
     36 N15         -1.3260     1.9810     5.0200 nb         1 6TM      -0.610000
     37 N13         -1.3030    -0.0660     6.3630 nc         1 6TM      -0.267400
     38 N27          0.0440     3.8330     1.5810 nh         1 6TM      -0.777400
     39 N22         -5.6530    -2.3090    -2.6480 n3         1 6TM      -0.718600
     40 N30          1.1460     2.0630    -0.5510 n3         1 6TM      -0.726600
     41 Cl1          1.1370    -4.7060    -5.3030 cl         1 6TM      -0.176000
     42 Cl2         -0.5800    -4.4250    -2.5720 cl         1 6TM      -0.177000
     43 H1          -2.1190     6.8800     5.3870 ha         1 6TM       0.115000
     44 H2          -0.8800     7.9030     3.4840 ha         1 6TM       0.114000
     45 H3           0.1110     6.4650     1.7370 ha         1 6TM       0.118000
     46 H4          -2.0100     2.2110     1.7160 ha         1 6TM       0.124000
     47 H5          -2.0020    -2.4640     4.1660 h4         1 6TM       0.246000
     48 H6          -2.2560     1.0180     0.3580 hn         1 6TM       0.318500
     49 H7          -2.2590    -0.0330    -1.7090 h1         1 6TM       0.052700
     50 H8          -1.9560    -1.5890    -0.9100 h1         1 6TM       0.052700
     51 H9          -4.3880    -1.7230    -0.2790 hc         1 6TM       0.052200
     52 H10         -4.6730    -0.1770    -1.0850 hc         1 6TM       0.052200
     53 H11         -3.9710    -1.1720    -3.2640 h1         1 6TM       0.032700
     54 H12         -3.5870    -2.6940    -2.4530 h1         1 6TM       0.032700
     55 H13         -7.5950    -4.2730    -3.2080 hc         1 6TM       0.047450
     56 H14         -7.8000    -3.5550    -4.8070 hc         1 6TM       0.047450
     57 H15          2.0520     1.0660     1.1250 h1         1 6TM       0.042200
     58 H16          0.2900     1.0370     1.1220 h1         1 6TM       0.042200
     59 H17          1.0800     2.5070     2.9130 h1         1 6TM       0.044450
     60 H18          2.1190     3.4100     1.8030 h1         1 6TM       0.044450
     61 H19          0.9880     1.2740    -2.5080 h1         1 6TM       0.034200
     62 H20          0.1120     0.3670    -1.2790 h1         1 6TM       0.034200
     63 H21          3.1480     0.4010    -1.6570 hc         1 6TM       0.059200
     64 H22          2.3160    -0.5080    -0.4040 hc         1 6TM       0.059200
     65 H23         -2.3840     4.4260     5.5180 ha         1 6TM       0.112000
     66 H24          3.4770    -0.6680    -3.8090 ha         1 6TM       0.122000
     67 H25          3.0210    -2.5450    -5.3740 ha         1 6TM       0.131000
     68 H26          0.3880    -2.1400    -1.1640 ha         1 6TM       0.132000
     69 H27         -8.6310    -1.5460    -3.7850 hc         1 6TM       0.047450
     70 H28         -8.5160    -2.3590    -2.2250 hc         1 6TM       0.047450
     71 H29         -5.2690    -4.0470    -3.8590 h1         1 6TM       0.035450
     72 H30         -5.5810    -2.5500    -4.7710 h1         1 6TM       0.035450
     73 H31         -6.4470    -0.5600    -3.5880 h1         1 6TM       0.035450
     74 H32         -6.8320    -0.6840    -1.8550 h1         1 6TM       0.035450
     75 H33          0.9380     4.8840    -0.0490 h1         1 6TM       0.044450
     76 H34         -0.8370     4.8880    -0.0590 h1         1 6TM       0.044450
     77 H35         -0.9330     2.5420    -0.7130 h1         1 6TM       0.042200
     78 H36          0.1010     3.4160    -1.8430 h1         1 6TM       0.042200
     79 H37         -1.4790    -2.1490     6.6510 hn         1 6TM       0.375000
@<TRIPOS>BOND
     1     1     2 ar  
     2     1    22 ar  
     3     1    43 1   
     4     2     3 ar  
     5     2    44 1   
     6     3    27 ar  
     7     3    45 1   
     8     4     5 ar  
     9     4    26 1   
    10     4    36 ar  
    11     5     6 ar  
    12     5    46 1   
    13     6     7 ar  
    14     6    10 1   
    15     7     8 2   
    16     7     9 ar  
    17     8    35 1   
    18     8    47 1   
    19     9    36 ar  
    20     9    37 2   
    21    10    11 2   
    22    10    12 1   
    23    12    13 1   
    24    12    48 1   
    25    13    14 1   
    26    13    49 1   
    27    13    50 1   
    28    14    15 1   
    29    14    51 1   
    30    14    52 1   
    31    15    39 1   
    32    15    53 1   
    33    15    54 1   
    34    16    30 1   
    35    16    31 1   
    36    16    55 1   
    37    16    56 1   
    38    17    18 1   
    39    17    40 1   
    40    17    57 1   
    41    17    58 1   
    42    18    38 1   
    43    18    59 1   
    44    18    60 1   
    45    19    20 1   
    46    19    40 1   
    47    19    61 1   
    48    19    62 1   
    49    20    21 1   
    50    20    63 1   
    51    20    64 1   
    52    21    23 ar  
    53    21    25 ar  
    54    22    26 ar  
    55    22    65 1   
    56    23    24 ar  
    57    23    66 1   
    58    24    28 ar  
    59    24    67 1   
    60    25    29 ar  
    61    25    68 1   
    62    26    27 ar  
    63    27    38 1   
    64    28    29 ar  
    65    28    41 1   
    66    29    42 1   
    67    30    32 1   
    68    30    69 1   
    69    30    70 1   
    70    31    39 1   
    71    31    71 1   
    72    31    72 1   
    73    32    39 1   
    74    32    73 1   
    75    32    74 1   
    76    33    34 1   
    77    33    38 1   
    78    33    75 1   
    79    33    76 1   
    80    34    40 1   
    81    34    77 1   
    82    34    78 1   
    83    35    37 1   
    84    35    79 1   
@<TRIPOS>SUBSTRUCTURE
     1 6TM         1 TEMP              0 ****  ****    0 ROOT
