@<TRIPOS>MOLECULE
6TM
   79    84     1     0     0
SMALL
bcc


@<TRIPOS>ATOM
      1 C1          -3.0380     4.4410     1.8480 ca         1 6TM      -0.141000
      2 C2          -2.0290     5.2120     1.2880 ca         1 6TM      -0.108000
      3 C3          -0.8760     4.6030     0.8160 ca         1 6TM      -0.169000
      4 C7          -1.6630     0.9610     1.4730 cp         1 6TM       0.509800
      5 C8          -2.7660     0.2370     0.9190 ca         1 6TM      -0.240300
      6 C9          -2.7750    -1.1310     0.8990 ca         1 6TM      -0.047600
      7 C10         -1.6360    -1.7720     1.4280 ca         1 6TM      -0.236300
      8 C11         -1.1870    -3.0730     1.6190 cc         1 6TM      -0.105100
      9 C14         -0.6000    -0.9610     1.9690 ca         1 6TM       0.293300
     10 C16         -3.8800    -1.9390     0.3000 c          1 6TM       0.678700
     11 O17         -3.6450    -3.0100    -0.2420 o          1 6TM      -0.601100
     12 N18         -5.1050    -1.4100     0.3980 ns         1 6TM      -0.566900
     13 C19         -6.2840    -2.0500    -0.1510 c3         1 6TM       0.102000
     14 C20         -7.4630    -1.0910    -0.1240 c3         1 6TM      -0.098400
     15 C21         -8.7040    -1.7280    -0.7330 c3         1 6TM       0.174800
     16 C24        -12.1510    -0.4750    -0.9460 c5         1 6TM      -0.079400
     17 C31          2.6170     1.5650     0.8170 c6         1 6TM       0.163800
     18 C32          1.5530     2.5030     1.3450 c6         1 6TM       0.186800
     19 C33          4.1590     1.1530    -0.9880 c3         1 6TM       0.172800
     20 C34          5.4950     1.3730    -0.2740 c3         1 6TM      -0.035100
     21 C35          6.5400     0.4280    -0.7910 ca         1 6TM      -0.066300
     22 C6          -2.8850     3.0660     1.9120 ca         1 6TM      -0.112000
     23 C36          7.2870     0.7310    -1.9270 ca         1 6TM      -0.118000
     24 C37          8.2180    -0.1630    -2.4290 ca         1 6TM      -0.114000
     25 C40          6.7500    -0.7970    -0.1680 ca         1 6TM      -0.114000
     26 C5          -1.7310     2.4400     1.4420 cp         1 6TM      -0.141500
     27 C4          -0.7010     3.2210     0.8880 ca         1 6TM       0.151600
     28 C38          8.4190    -1.3820    -1.7990 ca         1 6TM       0.023400
     29 C39          7.6820    -1.6960    -0.6640 ca         1 6TM       0.028400
     30 C25        -11.3400     0.8060    -1.2340 c5         1 6TM      -0.079400
     31 C23        -11.1060    -1.5860    -0.9850 c5         1 6TM       0.157300
     32 C26         -9.8820     0.3350    -1.2830 c5         1 6TM       0.157300
     33 C28          0.9500     3.0810    -0.8910 c6         1 6TM       0.186800
     34 C29          2.0050     2.1240    -1.4150 c6         1 6TM       0.163800
     35 N12         -0.0020    -2.9450     2.2180 na         1 6TM       0.065800
     36 N15         -0.6160     0.3830     1.9960 nb         1 6TM      -0.610000
     37 N13          0.3960    -1.7030     2.4510 nc         1 6TM      -0.267400
     38 N27          0.4620     2.5980     0.3870 nh         1 6TM      -0.639000
     39 N22         -9.8890    -0.9230    -0.5540 n3         1 6TM      -0.718600
     40 N30          3.1080     2.0090    -0.4770 n3         1 6TM      -0.726600
     41 CL1          9.5830    -2.4870    -2.4290 cl         1 6TM      -0.084400
     42 CL2          7.9170    -3.2000     0.1460 cl         1 6TM      -0.085400
     43 H1          -3.9390     4.9040     2.2260 ha         1 6TM       0.133000
     44 H2          -2.1360     6.2870     1.2210 ha         1 6TM       0.132000
     45 H3          -0.0960     5.2160     0.3810 ha         1 6TM       0.136000
     46 H4          -3.5750     0.8030     0.4770 ha         1 6TM       0.142000
     47 H5          -1.6040    -4.0350     1.3790 h4         1 6TM       0.196000
     48 H6          -5.2430    -0.6080     0.9910 hn         1 6TM       0.318500
     49 H7          -6.0720    -2.3590    -1.1770 h1         1 6TM       0.052700
     50 H8          -6.5250    -2.9560     0.4120 h1         1 6TM       0.052700
     51 H9          -7.6830    -0.8030     0.9090 hc         1 6TM       0.052200
     52 H10         -7.1960    -0.1800    -0.6640 hc         1 6TM       0.052200
     53 H11         -8.5190    -1.9400    -1.8010 h1         1 6TM       0.032700
     54 H12         -8.8790    -2.6960    -0.2520 h1         1 6TM       0.032700
     55 H13        -12.6170    -0.4220     0.0380 hc         1 6TM       0.047450
     56 H14        -12.9460    -0.6430    -1.6720 hc         1 6TM       0.047450
     57 H15          3.4380     1.5370     1.5350 h1         1 6TM       0.042200
     58 H16          2.1960     0.5460     0.7630 h1         1 6TM       0.042200
     59 H17          1.1740     2.1110     2.2860 h1         1 6TM       0.044450
     60 H18          1.9970     3.4920     1.5440 h1         1 6TM       0.044450
     61 H19          4.2990     1.3790    -2.0490 h1         1 6TM       0.034200
     62 H20          3.8820     0.0860    -0.9330 h1         1 6TM       0.034200
     63 H21          5.8120     2.4060    -0.4280 hc         1 6TM       0.059200
     64 H22          5.3820     1.2310     0.8030 hc         1 6TM       0.059200
     65 H23         -3.6780     2.4640     2.3410 ha         1 6TM       0.130000
     66 H24          7.1460     1.6800    -2.4280 ha         1 6TM       0.140000
     67 H25          8.7920     0.0860    -3.3110 ha         1 6TM       0.149000
     68 H26          6.1880    -1.0560     0.7210 ha         1 6TM       0.150000
     69 H27        -11.6300     1.2770    -2.1730 hc         1 6TM       0.047450
     70 H28        -11.4880     1.5460    -0.4460 hc         1 6TM       0.047450
     71 H29        -11.3460    -2.4290    -0.3320 h1         1 6TM       0.035450
     72 H30        -11.0120    -1.9820    -2.0110 h1         1 6TM       0.035450
     73 H31         -9.5640     0.1860    -2.3290 h1         1 6TM       0.035450
     74 H32         -9.1940     1.0550    -0.8360 h1         1 6TM       0.035450
     75 H33          1.3910     4.0880    -0.8290 h1         1 6TM       0.044450
     76 H34          0.1230     3.1250    -1.6010 h1         1 6TM       0.044450
     77 H35          1.5350     1.1470    -1.6190 h1         1 6TM       0.042200
     78 H36          2.3860     2.5050    -2.3650 h1         1 6TM       0.042200
     79 H37          0.5980    -3.7090     2.4940 hn         1 6TM       0.324700
@<TRIPOS>BOND
     1     1     2 ar  
     2     1    22 ar  
     3     1    43 1   
     4     2     3 ar  
     5     2    44 1   
     6     3    27 ar  
     7     3    45 1   
     8     4     5 ar  
     9     4    26 1   
    10     4    36 ar  
    11     5     6 ar  
    12     5    46 1   
    13     6     7 ar  
    14     6    10 1   
    15     7     8 2   
    16     7     9 ar  
    17     8    35 1   
    18     8    47 1   
    19     9    36 ar  
    20     9    37 2   
    21    10    11 2   
    22    10    12 1   
    23    12    13 1   
    24    12    48 1   
    25    13    14 1   
    26    13    49 1   
    27    13    50 1   
    28    14    15 1   
    29    14    51 1   
    30    14    52 1   
    31    15    39 1   
    32    15    53 1   
    33    15    54 1   
    34    16    30 1   
    35    16    31 1   
    36    16    55 1   
    37    16    56 1   
    38    17    18 1   
    39    17    40 1   
    40    17    57 1   
    41    17    58 1   
    42    18    38 1   
    43    18    59 1   
    44    18    60 1   
    45    19    20 1   
    46    19    40 1   
    47    19    61 1   
    48    19    62 1   
    49    20    21 1   
    50    20    63 1   
    51    20    64 1   
    52    21    23 ar  
    53    21    25 ar  
    54    22    26 ar  
    55    22    65 1   
    56    23    24 ar  
    57    23    66 1   
    58    24    28 ar  
    59    24    67 1   
    60    25    29 ar  
    61    25    68 1   
    62    26    27 ar  
    63    27    38 1   
    64    28    29 ar  
    65    28    41 1   
    66    29    42 1   
    67    30    32 1   
    68    30    69 1   
    69    30    70 1   
    70    31    39 1   
    71    31    71 1   
    72    31    72 1   
    73    32    39 1   
    74    32    73 1   
    75    32    74 1   
    76    33    34 1   
    77    33    38 1   
    78    33    75 1   
    79    33    76 1   
    80    34    40 1   
    81    34    77 1   
    82    34    78 1   
    83    35    37 1   
    84    35    79 1   
@<TRIPOS>SUBSTRUCTURE
     1 6TM         1 TEMP              0 ****  ****    0 ROOT
