@<TRIPOS>MOLECULE
6TN
   49    51     1     0     0
SMALL
No Charge or Current Charge


@<TRIPOS>ATOM
      1 C10         -1.2250    -1.8480     0.3160 c          1 6TN       0.638700
      2 C13         -2.7400     0.1490     0.6180 ca         1 6TN      -0.015000
      3 C15         -4.1870     2.1890     1.0930 c3         1 6TN      -0.003400
      4 C17         -3.0160     3.1350     1.4460 c3         1 6TN      -0.085100
      5 C20         -3.8240    -0.1830    -1.9390 ca         1 6TN      -0.318000
      6 C21         -2.8380    -1.0650    -1.4820 ca         1 6TN       0.222100
      7 C24          2.1510    -2.3030     0.9600 c6         1 6TN      -0.163700
      8 C01          7.9590     1.2530    -1.1380 c3         1 6TN      -0.099100
      9 C02          6.4750     1.5720    -0.8970 c3         1 6TN       0.178600
     10 O03          5.8340     0.3550    -0.4670 os         1 6TN      -0.442300
     11 C04          4.4880     0.3160    -0.1690 ca         1 6TN       0.365300
     12 N05          3.7530     1.4490    -0.2840 nb         1 6TN      -0.258000
     13 C06          2.4420     1.3740     0.0140 ca         1 6TN       0.152900
     14 C07          1.8520     0.1700     0.4290 ca         1 6TN      -0.264300
     15 C08          0.3600     0.0940     0.7600 c6         1 6TN       0.171300
     16 N09         -0.1220    -1.2930     1.0070 n          1 6TN      -0.409800
     17 O11         -1.3770    -3.0620     0.2510 o          1 6TN      -0.576100
     18 C12         -2.2780    -0.9020    -0.2020 ca         1 6TN      -0.223600
     19 C14         -3.7280     1.0490     0.1680 ca         1 6TN      -0.148300
     20 C16         -4.8760     1.6410     2.3630 c3         1 6TN      -0.085100
     21 C18         -4.2680     0.8680    -1.1260 ca         1 6TN       0.201100
     22 O19         -5.2260     1.7010    -1.6180 oh         1 6TN      -0.528100
     23 C23          0.8410    -2.1400     1.7520 c6         1 6TN       0.093000
     24 C25          2.6920    -0.9510     0.5210 ca         1 6TN       0.178300
     25 N26          4.0030    -0.8820     0.2220 nb         1 6TN      -0.200000
     26 H1          -2.3340     0.2600     1.6210 ha         1 6TN       0.124000
     27 H2          -4.9340     2.8100     0.5850 hc         1 6TN       0.065700
     28 H3          -2.5490     3.5220     0.5320 hc         1 6TN       0.034200
     29 H4          -3.3740     3.9890     2.0320 hc         1 6TN       0.034200
     30 H5          -2.2460     2.6190     2.0320 hc         1 6TN       0.034200
     31 H6          -4.2430    -0.3100    -2.9340 ha         1 6TN       0.116000
     32 H7           2.8910    -2.8340     1.5740 hc         1 6TN       0.082700
     33 H8           1.9700    -2.9250     0.0730 hc         1 6TN       0.082700
     34 H9           8.4910     2.1520    -1.4680 hc         1 6TN       0.049033
     35 H10          8.4310     0.8920    -0.2160 hc         1 6TN       0.049033
     36 H11          8.0680     0.4840    -1.9120 hc         1 6TN       0.049033
     37 H12          6.3900     2.3530    -0.1290 h1         1 6TN       0.048200
     38 H13          6.0260     1.9450    -1.8270 h1         1 6TN       0.048200
     39 H14          1.8610     2.2900    -0.0830 h4         1 6TN       0.021100
     40 H15          0.1590     0.7050     1.6520 h1         1 6TN       0.060700
     41 H16         -0.1900     0.5470    -0.0760 h1         1 6TN       0.060700
     42 H17         -5.2680     2.4620     2.9740 hc         1 6TN       0.034200
     43 H18         -5.7160     0.9900     2.0910 hc         1 6TN       0.034200
     44 H19         -4.1780     1.0610     2.9780 hc         1 6TN       0.034200
     45 H20         -5.4570     1.3960    -2.5200 ho         1 6TN       0.468000
     46 H21         -2.9250    -1.9830    -3.1480 ho         1 6TN       0.467000
     47 H22          0.4100    -3.1270     1.9740 h1         1 6TN       0.065200
     48 H23          1.0580    -1.6610     2.7180 h1         1 6TN       0.065200
     49 O22         -2.4080    -2.0470    -2.3190 oh         1 6TN      -0.511100
@<TRIPOS>BOND
     1     1    16 1   
     2     1    17 2   
     3     1    18 1   
     4     2    18 ar  
     5     2    19 ar  
     6     2    26 1   
     7     3     4 1   
     8     3    19 1   
     9     3    20 1   
    10     3    27 1   
    11     4    28 1   
    12     4    29 1   
    13     4    30 1   
    14     5     6 ar  
    15     5    21 ar  
    16     5    31 1   
    17     6    18 ar  
    18     6    49 1   
    19     7    23 1   
    20     7    24 1   
    21     7    32 1   
    22     7    33 1   
    23     8     9 1   
    24     8    34 1   
    25     8    35 1   
    26     8    36 1   
    27     9    10 1   
    28     9    37 1   
    29     9    38 1   
    30    10    11 1   
    31    11    12 ar  
    32    11    25 ar  
    33    12    13 ar  
    34    13    14 ar  
    35    13    39 1   
    36    14    15 1   
    37    14    24 ar  
    38    15    16 1   
    39    15    40 1   
    40    15    41 1   
    41    16    23 1   
    42    19    21 ar  
    43    20    42 1   
    44    20    43 1   
    45    20    44 1   
    46    21    22 1   
    47    22    45 1   
    48    23    47 1   
    49    23    48 1   
    50    24    25 ar  
    51    46    49 1   
@<TRIPOS>SUBSTRUCTURE
     1 6TN         1 TEMP              0 ****  ****    0 ROOT
