@<TRIPOS>MOLECULE
6TN
   49    51     1     0     0
SMALL
bcc


@<TRIPOS>ATOM
      1 C10         -1.0520    -1.6280     0.5440 c          1 6TN       0.705700
      2 C13         -2.6990     0.2530     0.6710 ca         1 6TN      -0.033000
      3 C15         -4.4070     2.0650     1.0600 c3         1 6TN      -0.003400
      4 C17         -3.4470     2.9840     1.8150 c3         1 6TN      -0.085100
      5 C20         -3.2370     0.0930    -2.0130 ca         1 6TN      -0.336000
      6 C21         -2.2820    -0.7500    -1.4620 ca         1 6TN       0.222100
      7 C24          2.1290    -2.2070     1.1820 c6         1 6TN      -0.163700
      8 C01          7.6840     0.9460    -1.6430 c3         1 6TN      -0.099100
      9 C02          6.2700     1.3100    -1.2600 c3         1 6TN       0.155400
     10 O03          5.6540     0.1380    -0.7180 os         1 6TN      -0.419100
     11 C04          4.4000     0.2090    -0.2940 ca         1 6TN       0.891300
     12 N05          3.7490     1.3570    -0.3780 nb         1 6TN      -0.784000
     13 C06          2.5010     1.3490     0.0690 ca         1 6TN       0.481200
     14 C07          1.8920     0.2260     0.5960 ca         1 6TN      -0.394900
     15 C08          0.4710     0.2540     1.1000 c6         1 6TN       0.171300
     16 N09         -0.0370    -1.0910     1.2640 n          1 6TN      -0.476800
     17 O11         -1.2320    -2.8340     0.4710 o          1 6TN      -0.576100
     18 C12         -2.0000    -0.6720    -0.0980 ca         1 6TN      -0.223600
     19 C14         -3.6660     1.1030     0.1560 ca         1 6TN      -0.148300
     20 C16         -5.3180     1.3100     2.0290 c3         1 6TN      -0.085100
     21 C18         -3.9270     1.0040    -1.2160 ca         1 6TN       0.201100
     22 O19         -4.8610     1.8150    -1.7450 oh         1 6TN      -0.489100
     23 C23          0.8710    -1.9550     1.9980 c6         1 6TN       0.093000
     24 C25          2.6800    -0.9250     0.6360 ca         1 6TN       0.506600
     25 N26          3.9280    -0.9290     0.1890 nb         1 6TN      -0.726000
     26 H1          -2.4800     0.3010     1.7320 ha         1 6TN       0.142000
     27 H2          -5.0410     2.7010     0.4410 hc         1 6TN       0.065700
     28 H3          -2.8170     3.5500     1.1290 hc         1 6TN       0.034200
     29 H4          -4.0030     3.6970     2.4260 hc         1 6TN       0.034200
     30 H5          -2.7910     2.4240     2.4840 hc         1 6TN       0.034200
     31 H6          -3.4480     0.0420    -3.0780 ha         1 6TN       0.134000
     32 H7           2.8890    -2.7010     1.7900 hc         1 6TN       0.082700
     33 H8           1.9090    -2.8810     0.3490 hc         1 6TN       0.082700
     34 H9           8.1820     1.8260    -2.0490 hc         1 6TN       0.049033
     35 H10          8.2590     0.6070    -0.7800 hc         1 6TN       0.049033
     36 H11          7.7070     0.1670    -2.4050 hc         1 6TN       0.049033
     37 H12          6.2620     2.1120    -0.5180 h1         1 6TN       0.048200
     38 H13          5.7080     1.6580    -2.1290 h1         1 6TN       0.048200
     39 H14          1.9580     2.2880    -0.0010 h4         1 6TN       0.021100
     40 H15          0.4290     0.7840     2.0570 h1         1 6TN       0.060700
     41 H16         -0.1520     0.8100     0.4040 h1         1 6TN       0.060700
     42 H17         -5.8970     2.0060     2.6380 hc         1 6TN       0.034200
     43 H18         -6.0210     0.6680     1.4950 hc         1 6TN       0.034200
     44 H19         -4.7410     0.6790     2.7080 hc         1 6TN       0.034200
     45 H20         -4.9520     1.6540    -2.6910 ho         1 6TN       0.429000
     46 H21         -1.8550    -1.5690    -3.1310 ho         1 6TN       0.428000
     47 H22          0.3760    -2.8880     2.2510 h1         1 6TN       0.065200
     48 H23          1.1260    -1.4530     2.9350 h1         1 6TN       0.065200
     49 O22         -1.5890    -1.6280    -2.2070 oh         1 6TN      -0.472100
@<TRIPOS>BOND
     1     1    16 1   
     2     1    17 2   
     3     1    18 1   
     4     2    18 ar  
     5     2    19 ar  
     6     2    26 1   
     7     3     4 1   
     8     3    19 1   
     9     3    20 1   
    10     3    27 1   
    11     4    28 1   
    12     4    29 1   
    13     4    30 1   
    14     5     6 ar  
    15     5    21 ar  
    16     5    31 1   
    17     6    18 ar  
    18     6    49 1   
    19     7    23 1   
    20     7    24 1   
    21     7    32 1   
    22     7    33 1   
    23     8     9 1   
    24     8    34 1   
    25     8    35 1   
    26     8    36 1   
    27     9    10 1   
    28     9    37 1   
    29     9    38 1   
    30    10    11 1   
    31    11    12 ar  
    32    11    25 ar  
    33    12    13 ar  
    34    13    14 ar  
    35    13    39 1   
    36    14    15 1   
    37    14    24 ar  
    38    15    16 1   
    39    15    40 1   
    40    15    41 1   
    41    16    23 1   
    42    19    21 ar  
    43    20    42 1   
    44    20    43 1   
    45    20    44 1   
    46    21    22 1   
    47    22    45 1   
    48    23    47 1   
    49    23    48 1   
    50    24    25 ar  
    51    46    49 1   
@<TRIPOS>SUBSTRUCTURE
     1 6TN         1 TEMP              0 ****  ****    0 ROOT
