@<TRIPOS>MOLECULE
6TO
   38    39     1     0     0
SMALL
bcc


@<TRIPOS>ATOM
      1 C10          4.2050     1.7700     0.1750 c6         1 6TO       0.147100
      2 C13          2.7010    -0.5850    -0.3250 c2         1 6TO      -0.226200
      3 C15          4.7610     0.4180     0.6080 c6         1 6TO      -0.062200
      4 C01         -6.7120    -0.3340     0.4990 ca         1 6TO       0.142100
      5 C02         -6.4070    -0.5080    -0.8500 ca         1 6TO      -0.201500
      6 C03         -5.0940    -0.4170    -1.2730 ca         1 6TO      -0.068500
      7 C04         -4.0510    -0.1480    -0.3810 ca         1 6TO      -0.096800
      8 C05         -4.3780     0.0220     0.9690 ca         1 6TO      -0.068500
      9 C06         -5.6840    -0.0690     1.4070 ca         1 6TO      -0.201500
     10 C07         -2.6930    -0.0640    -0.8890 ce         1 6TO      -0.052200
     11 C08         -1.5890     0.2440    -0.1930 cf         1 6TO      -0.203200
     12 C09         -0.2790     0.2770    -0.8530 c          1 6TO       0.650300
     13 O02         -0.0650    -0.0050    -2.0100 o          1 6TO      -0.538000
     14 O03          0.6700     0.6630    -0.0000 os         1 6TO      -0.441900
     15 C11          2.6990     1.8270     0.3970 c6         1 6TO       0.160100
     16 C12          2.0320     0.7470    -0.4530 c6         1 6TO       0.166300
     17 C14          3.9430    -0.7450     0.1300 ce         1 6TO      -0.136400
     18 O04          2.4840     1.6330     1.7720 oh         1 6TO      -0.588800
     19 O05          4.4100     2.0150    -1.2010 oh         1 6TO      -0.611800
     20 C16          4.5570    -2.1370     0.2170 c          1 6TO       0.919800
     21 O06          3.8760    -3.0970    -0.1940 o          1 6TO      -0.828800
     22 O07          5.7030    -2.1960     0.7070 o          1 6TO      -0.828800
     23 H1           4.6740     2.5590     0.7790 h1         1 6TO       0.022700
     24 H2           2.1470    -1.4540    -0.6620 ha         1 6TO       0.156000
     25 H4           5.7940     0.3220     0.2640 hc         1 6TO       0.063200
     26 H5           4.8300     0.3870     1.6990 hc         1 6TO       0.063200
     27 H7          -4.8740    -0.5550    -2.3250 ha         1 6TO       0.137000
     28 H8          -3.6040     0.2240     1.6980 ha         1 6TO       0.137000
     29 H9          -5.9060     0.0640     2.4600 ha         1 6TO       0.136000
     30 H10         -8.0890    -0.3010     1.8220 ho         1 6TO       0.425000
     31 H11         -2.5820    -0.2730    -1.9490 ha         1 6TO       0.143000
     32 H12         -1.6210     0.4760     0.8640 ha         1 6TO       0.141000
     33 H13          2.3190     2.8080     0.0770 h1         1 6TO       0.020700
     34 H14          2.0400     1.0670    -1.4980 h1         1 6TO       0.074700
     35 H16          1.5430     1.7200     1.9500 ho         1 6TO       0.406000
     36 H17          5.3490     1.9160    -1.3870 ho         1 6TO       0.407000
     37 O01         -7.9970    -0.4310     0.8710 oh         1 6TO      -0.497100
     38 H6          -7.1980    -0.7140    -1.5590 ha         1 6TO       0.136000
@<TRIPOS>BOND
     1     1     3 1   
     2     1    15 1   
     3     1    19 1   
     4     1    23 1   
     5     2    16 1   
     6     2    17 2   
     7     2    24 1   
     8     3    17 1   
     9     3    25 1   
    10     3    26 1   
    11     4     5 ar  
    12     4     9 ar  
    13     4    37 1   
    14     5     6 ar  
    15     5    38 1   
    16     6     7 ar  
    17     6    27 1   
    18     7     8 ar  
    19     7    10 1   
    20     8     9 ar  
    21     8    28 1   
    22     9    29 1   
    23    10    11 2   
    24    10    31 1   
    25    11    12 1   
    26    11    32 1   
    27    12    13 2   
    28    12    14 1   
    29    14    16 1   
    30    15    16 1   
    31    15    18 1   
    32    15    33 1   
    33    16    34 1   
    34    17    20 1   
    35    18    35 1   
    36    19    36 1   
    37    20    21 1   
    38    20    22 1   
    39    30    37 1   
@<TRIPOS>SUBSTRUCTURE
     1 6TO         1 TEMP              0 ****  ****    0 ROOT
