@<TRIPOS>MOLECULE
6TO
   38    39     1     0     0
SMALL
No Charge or Current Charge


@<TRIPOS>ATOM
      1 C10          4.3440     1.7820     0.3020 c6         1 6TO       0.170300
      2 C13          2.6960    -0.4840    -0.4430 c2         1 6TO      -0.276200
      3 C15          4.7920     0.3500     0.6970 c6         1 6TO      -0.062200
      4 C01         -6.7970    -0.3730     0.5590 ca         1 6TO       0.142100
      5 C02         -6.4930    -0.7750    -0.7480 ca         1 6TO      -0.183500
      6 C03         -5.1710    -0.6950    -1.2220 ca         1 6TO      -0.050500
      7 C04         -4.1410    -0.2100    -0.3890 ca         1 6TO      -0.096800
      8 C05         -4.4580     0.1920     0.9270 ca         1 6TO      -0.050500
      9 C06         -5.7810     0.1100     1.3970 ca         1 6TO      -0.183500
     10 C07         -2.7470    -0.1360    -0.9200 ce         1 6TO      -0.102200
     11 C08         -1.6100     0.2950    -0.2960 cf         1 6TO      -0.253200
     12 C09         -0.2710     0.3210    -0.9340 c          1 6TO       0.601300
     13 O02         -0.0500    -0.0300    -2.0850 o          1 6TO      -0.489000
     14 O03          0.6750     0.8120    -0.0750 os         1 6TO      -0.465100
     15 C11          2.7970     1.9300     0.4470 c6         1 6TO       0.183300
     16 C12          2.0620     0.9070    -0.4730 c6         1 6TO       0.189500
     17 C14          3.9330    -0.7660     0.0590 ce         1 6TO      -0.136400
     18 O04          2.3710     1.7540     1.8120 oh         1 6TO      -0.651000
     19 O05          4.7720     2.0810    -1.0400 oh         1 6TO      -0.674000
     20 C16          4.5230    -2.1670     0.0300 c          1 6TO       0.709200
     21 O06          3.8710    -3.0680    -0.4810 o          1 6TO      -0.723500
     22 O07          5.6250    -2.3580     0.5240 o          1 6TO      -0.723500
     23 H1           4.8240     2.4930     0.9920 h1         1 6TO       0.022700
     24 H2           2.0960    -1.2760    -0.8920 ha         1 6TO       0.206000
     25 H4           5.8510     0.2190     0.4380 hc         1 6TO       0.063200
     26 H5           4.7390     0.2470     1.7900 hc         1 6TO       0.063200
     27 H7          -4.9510    -1.0100    -2.2400 ha         1 6TO       0.119000
     28 H8          -3.6880     0.5700     1.5940 ha         1 6TO       0.119000
     29 H9          -6.0080     0.4240     2.4130 ha         1 6TO       0.118000
     30 H10         -8.1030    -0.1340     1.9360 ho         1 6TO       0.464000
     31 H11         -2.6510    -0.4810    -1.9520 ha         1 6TO       0.193000
     32 H12         -1.6460     0.6480     0.7310 ha         1 6TO       0.191000
     33 H13          2.5160     2.9410     0.1170 h1         1 6TO       0.020700
     34 H14          2.1100     1.2970    -1.5010 h1         1 6TO       0.074700
     35 H16          1.4950     1.3120     1.7290 ho         1 6TO       0.445000
     36 H17          5.7510     2.0070    -1.0470 ho         1 6TO       0.446000
     37 O01         -8.0800    -0.4550     1.0090 oh         1 6TO      -0.536100
     38 H6          -7.2800    -1.1500    -1.3980 ha         1 6TO       0.118000
@<TRIPOS>BOND
     1     1     3 1   
     2     1    15 1   
     3     1    19 1   
     4     1    23 1   
     5     2    16 1   
     6     2    17 2   
     7     2    24 1   
     8     3    17 1   
     9     3    25 1   
    10     3    26 1   
    11     4     5 ar  
    12     4     9 ar  
    13     4    37 1   
    14     5     6 ar  
    15     5    38 1   
    16     6     7 ar  
    17     6    27 1   
    18     7     8 ar  
    19     7    10 1   
    20     8     9 ar  
    21     8    28 1   
    22     9    29 1   
    23    10    11 2   
    24    10    31 1   
    25    11    12 1   
    26    11    32 1   
    27    12    13 2   
    28    12    14 1   
    29    14    16 1   
    30    15    16 1   
    31    15    18 1   
    32    15    33 1   
    33    16    34 1   
    34    17    20 1   
    35    18    35 1   
    36    19    36 1   
    37    20    21 1   
    38    20    22 1   
    39    30    37 1   
@<TRIPOS>SUBSTRUCTURE
     1 6TO         1 TEMP              0 ****  ****    0 ROOT
