@<TRIPOS>MOLECULE
6TP
   50    52     1     0     0
SMALL
No Charge or Current Charge


@<TRIPOS>ATOM
      1 C1          -6.2110    -0.9720    -1.5930 c3         1 6TP       0.268200
      2 N1           5.7040     2.5470    -0.1900 nb         1 6TP      -0.782000
      3 O1          -5.2670     0.7280     1.2490 o          1 6TP      -0.541000
      4 S1           2.5700    -0.7750     0.2560 ss         1 6TP       0.226400
      5 C2          -0.5730    -0.9810     0.4480 ca         1 6TP      -0.126000
      6 O2           5.2080    -2.2480     0.2570 o          1 6TP      -0.623100
      7 S2          -4.6310    -0.4380     0.6300 sy         1 6TP       1.179600
      8 C3          -7.4850    -0.5710    -0.8080 c3         1 6TP      -0.108767
      9 N3           7.2670    -1.3440     0.0820 ns         1 6TP      -0.498900
     10 O3          -4.8650    -1.8110     1.0800 o          1 6TP      -0.541000
     11 C4          -6.2940    -0.3920    -3.0230 c3         1 6TP      -0.108767
     12 N4          -5.0070    -0.3610    -1.0000 n7         1 6TP      -0.921300
     13 C5          -2.3740     1.1670     0.3700 ca         1 6TP      -0.013500
     14 C6          -6.0670    -2.5120    -1.6860 c3         1 6TP      -0.108767
     15 C7           2.0130     1.8160     0.0650 cc         1 6TP      -0.136200
     16 C8           3.4580     1.6980    -0.0020 ca         1 6TP      -0.210800
     17 C9           3.9060     0.3960     0.0900 ca         1 6TP      -0.078000
     18 C10          4.3950     2.7300    -0.1370 ca         1 6TP       0.687900
     19 C11          5.3020     0.1430     0.0440 ca         1 6TP      -0.253600
     20 C12          5.8930    -1.2440     0.1370 c          1 6TP       0.627700
     21 C13          6.1470     1.2690    -0.0970 ca         1 6TP       0.440900
     22 C14          1.3930     0.5790     0.2040 cd         1 6TP      -0.070600
     23 C15          8.0050    -2.6080     0.1580 c3         1 6TP       0.096300
     24 C16         -0.0670     0.3320     0.3090 ca         1 6TP       0.039200
     25 C17         -1.9540    -1.2200     0.5480 ca         1 6TP      -0.013500
     26 C18         -2.8620    -0.1450     0.5120 ca         1 6TP      -0.298500
     27 C19         -0.9920     1.4000     0.2710 ca         1 6TP      -0.126000
     28 H2           0.0930    -1.8380     0.4810 ha         1 6TP       0.120000
     29 HN2          4.8820     4.5760    -0.5820 hn         1 6TP       0.496000
     30 HN2A         3.2050     4.2430    -0.6730 hn         1 6TP       0.496000
     31 H3          -8.3830    -0.9120    -1.3360 hc         1 6TP       0.047811
     32 H3A         -7.5030    -1.0210     0.1910 hc         1 6TP       0.047811
     33 H3B         -7.5510     0.5180    -0.6990 hc         1 6TP       0.047811
     34 HN3          7.7960    -0.4870    -0.0170 hn         1 6TP       0.316500
     35 H4          -6.3700     0.7020    -2.9980 hc         1 6TP       0.047811
     36 H4A         -5.4060    -0.6570    -3.6100 hc         1 6TP       0.047811
     37 H4B         -7.1740    -0.7780    -3.5520 hc         1 6TP       0.047811
     38 HN4         -4.1660    -0.7310    -1.4330 hn         1 6TP       0.491000
     39 H5          -3.0620     2.0100     0.3330 ha         1 6TP       0.131000
     40 H6          -6.8580    -2.9310    -2.3200 hc         1 6TP       0.047811
     41 H6A         -5.1020    -2.7950    -2.1240 hc         1 6TP       0.047811
     42 H6B         -6.1580    -2.9940    -0.7070 hc         1 6TP       0.047811
     43 H7           1.4800     2.7610     0.0240 ha         1 6TP       0.195000
     44 H13          7.2290     1.1640    -0.1410 h4         1 6TP       0.008100
     45 H15          9.0820    -2.4090     0.0910 h1         1 6TP       0.041700
     46 H15A         7.7880    -3.1060     1.1120 h1         1 6TP       0.041700
     47 H15B         7.7050    -3.2610    -0.6720 h1         1 6TP       0.041700
     48 H17         -2.3100    -2.2440     0.6530 ha         1 6TP       0.131000
     49 H19         -0.6560     2.4250     0.1630 ha         1 6TP       0.120000
     50 N2           4.1000     4.0220    -0.2580 nv         1 6TP      -1.066900
@<TRIPOS>BOND
     1     1     8 1   
     2     1    11 1   
     3     1    12 1   
     4     1    14 1   
     5     2    18 ar  
     6     2    21 ar  
     7     3     7 2   
     8     4    17 1   
     9     4    22 1   
    10     5    24 ar  
    11     5    25 ar  
    12     5    28 1   
    13     6    20 2   
    14     7    10 2   
    15     7    12 1   
    16     7    26 1   
    17     8    31 1   
    18     8    32 1   
    19     8    33 1   
    20     9    20 1   
    21     9    23 1   
    22     9    34 1   
    23    11    35 1   
    24    11    36 1   
    25    11    37 1   
    26    12    38 1   
    27    13    26 ar  
    28    13    27 ar  
    29    13    39 1   
    30    14    40 1   
    31    14    41 1   
    32    14    42 1   
    33    15    16 1   
    34    15    22 2   
    35    15    43 1   
    36    16    17 ar  
    37    16    18 ar  
    38    17    19 ar  
    39    18    50 1   
    40    19    20 1   
    41    19    21 ar  
    42    21    44 1   
    43    22    24 1   
    44    23    45 1   
    45    23    46 1   
    46    23    47 1   
    47    24    27 ar  
    48    25    26 ar  
    49    25    48 1   
    50    27    49 1   
    51    29    50 1   
    52    30    50 1   
@<TRIPOS>SUBSTRUCTURE
     1 6TP         1 TEMP              0 ****  ****    0 ROOT
