@<TRIPOS>MOLECULE
6TP
   50    52     1     0     0
SMALL
abcg2


@<TRIPOS>ATOM
      1 C1          -5.4400    -0.9740    -1.5540 c3         1 6TP       0.268200
      2 N1           5.5300     2.2530    -0.3400 nb         1 6TP      -0.782000
      3 O1          -5.3060     1.3410     1.5700 o          1 6TP      -0.541000
      4 S1           2.1790    -0.6400     0.2610 ss         1 6TP       0.226400
      5 C2          -0.8480    -0.5660     1.0190 ca         1 6TP      -0.126000
      6 O2           4.3080    -2.3080     0.1830 o          1 6TP      -0.623100
      7 S2          -4.8230     0.1240     0.9330 sy         1 6TP       1.179600
      8 C3          -6.4420    -2.0590    -1.1700 c3         1 6TP      -0.108767
      9 N3           6.4750    -1.9070    -0.2550 ns         1 6TP      -0.498900
     10 O3          -5.0720    -1.1650     1.5570 o          1 6TP      -0.541000
     11 C4          -5.8750    -0.3260    -2.8660 c3         1 6TP      -0.108767
     12 N4          -5.4810     0.1230    -0.5570 n7         1 6TP      -0.921300
     13 C5          -2.5530     1.4740     0.2250 ca         1 6TP      -0.013500
     14 C6          -4.0430    -1.5680    -1.7220 c3         1 6TP      -0.108767
     15 C7           1.8210     1.9150     0.1150 cc         1 6TP      -0.136200
     16 C8           3.2200     1.6980    -0.0360 ca         1 6TP      -0.210800
     17 C9           3.5670     0.3490     0.0230 ca         1 6TP      -0.078000
     18 C10          4.2630     2.6430    -0.2290 ca         1 6TP       0.687900
     19 C11          4.9030    -0.0660    -0.1110 ca         1 6TP      -0.253600
     20 C12          5.2130    -1.5090    -0.0510 c          1 6TP       0.627700
     21 C13          5.8210     0.9580    -0.2800 ca         1 6TP       0.440900
     22 C14          1.1290     0.7570     0.2820 cd         1 6TP      -0.070600
     23 C15          6.8510    -3.3010    -0.2070 c3         1 6TP       0.096300
     24 C16         -0.3110     0.5960     0.4600 ca         1 6TP       0.039200
     25 C17         -2.2160    -0.7180     1.1700 ca         1 6TP      -0.013500
     26 C18         -3.0640     0.3000     0.7670 ca         1 6TP      -0.298500
     27 C19         -1.1890     1.6120     0.0660 ca         1 6TP      -0.126000
     28 H2          -0.2020    -1.3670     1.3550 ha         1 6TP       0.120000
     29 HN2          4.7570     4.5850    -0.5320 hn         1 6TP       0.496000
     30 HN2A         3.0750     4.3130    -0.3640 hn         1 6TP       0.496000
     31 H3          -6.4830    -2.8220    -1.9490 hc         1 6TP       0.047811
     32 H3A         -6.1700    -2.5500    -0.2380 hc         1 6TP       0.047811
     33 H3B         -7.4420    -1.6380    -1.0570 hc         1 6TP       0.047811
     34 HN3          7.1890    -1.2400    -0.4910 hn         1 6TP       0.316500
     35 H4          -6.8670     0.1210    -2.7760 hc         1 6TP       0.047811
     36 H4A         -5.1750     0.4500    -3.1820 hc         1 6TP       0.047811
     37 H4B         -5.9180    -1.0770    -3.6540 hc         1 6TP       0.047811
     38 HN4         -5.5600     1.0580    -0.9400 hn         1 6TP       0.491000
     39 H5          -3.2050     2.2780    -0.0880 ha         1 6TP       0.131000
     40 H6          -4.0490    -2.2840    -2.5440 hc         1 6TP       0.047811
     41 H6A         -3.3050    -0.7970    -1.9530 hc         1 6TP       0.047811
     42 H6B         -3.7130    -2.1050    -0.8320 hc         1 6TP       0.047811
     43 H7           1.3550     2.8910     0.1210 ha         1 6TP       0.195000
     44 H13          6.8790     0.7370    -0.3740 h4         1 6TP       0.008100
     45 H15          7.9220    -3.3700    -0.3700 h1         1 6TP       0.041700
     46 H15A         6.6210    -3.7440     0.7610 h1         1 6TP       0.041700
     47 H15B         6.3480    -3.8840    -0.9800 h1         1 6TP       0.041700
     48 H17         -2.6060    -1.6310     1.5980 ha         1 6TP       0.131000
     49 H19         -0.8080     2.5180    -0.3850 ha         1 6TP       0.120000
     50 N2           4.0110     3.9590    -0.2810 nv         1 6TP      -1.066900
@<TRIPOS>BOND
     1     1     8 1   
     2     1    11 1   
     3     1    12 1   
     4     1    14 1   
     5     2    18 ar  
     6     2    21 ar  
     7     3     7 2   
     8     4    17 1   
     9     4    22 1   
    10     5    24 ar  
    11     5    25 ar  
    12     5    28 1   
    13     6    20 2   
    14     7    10 2   
    15     7    12 1   
    16     7    26 1   
    17     8    31 1   
    18     8    32 1   
    19     8    33 1   
    20     9    20 1   
    21     9    23 1   
    22     9    34 1   
    23    11    35 1   
    24    11    36 1   
    25    11    37 1   
    26    12    38 1   
    27    13    26 ar  
    28    13    27 ar  
    29    13    39 1   
    30    14    40 1   
    31    14    41 1   
    32    14    42 1   
    33    15    16 1   
    34    15    22 2   
    35    15    43 1   
    36    16    17 ar  
    37    16    18 ar  
    38    17    19 ar  
    39    18    50 1   
    40    19    20 1   
    41    19    21 ar  
    42    21    44 1   
    43    22    24 1   
    44    23    45 1   
    45    23    46 1   
    46    23    47 1   
    47    24    27 ar  
    48    25    26 ar  
    49    25    48 1   
    50    27    49 1   
    51    29    50 1   
    52    30    50 1   
@<TRIPOS>SUBSTRUCTURE
     1 6TP         1 TEMP              0 ****  ****    0 ROOT
