@<TRIPOS>MOLECULE
6TS
   76    79     1     0     0
SMALL
No Charge or Current Charge


@<TRIPOS>ATOM
      1 C2          -4.4610     0.7350     1.9770 ca         1 6TS      -0.116000
      2 C3          -3.0990     0.5120     2.2350 ca         1 6TS       0.186900
      3 N4          -2.4640    -0.5760     1.7600 nb         1 6TS      -0.251000
      4 C5          -3.2000    -1.4260     1.0210 ca         1 6TS       0.426900
      5 C7          -1.2970    -3.0690     0.4910 ca         1 6TS       0.354000
      6 C8          -1.1070    -4.4450     0.3510 ca         1 6TS      -0.231000
      7 C11          1.1000    -2.8410     0.4930 ca         1 6TS       0.497000
      8 C12          2.2860    -2.0370     0.5500 cg         1 6TS      -0.226000
      9 C13          3.2850    -1.3460     0.5980 c1         1 6TS      -0.096100
     10 C14          4.4840    -0.4990     0.6110 c3         1 6TS      -0.021300
     11 C15          4.9340    -0.1000    -0.8100 c3         1 6TS       0.123000
     12 C22         10.2130     2.6050     0.0620 c3         1 6TS      -0.078400
     13 C23         11.2600     2.5410     1.2100 c3         1 6TS      -0.067400
     14 C24         12.6520     1.9740     0.8420 c3         1 6TS      -0.043200
     15 C25         12.6680     0.4760     0.5980 c2         1 6TS      -0.221200
     16 C26         12.2900    -0.1460    -0.5300 c2         1 6TS      -0.214200
     17 C27         11.7510     0.5350    -1.7700 c3         1 6TS      -0.040200
     18 C28         10.2150     0.6850    -1.7300 c3         1 6TS      -0.093400
     19 C31         -5.1350    -0.2350     1.2120 ca         1 6TS       0.441900
     20 N32         -6.4830    -0.0750     0.8980 nu         1 6TS      -0.927900
     21 C35         -8.4200    -3.0780    -0.1640 ca         1 6TS      -0.094000
     22 C36         -9.4220    -2.4840    -0.9440 ca         1 6TS      -0.117000
     23 C37         -9.4470    -1.0900    -1.1170 ca         1 6TS      -0.080000
     24 C38         -8.4670    -0.2730    -0.5080 ca         1 6TS      -0.087000
     25 C40         -9.4680     2.0320    -1.0410 c          1 6TS       0.599100
     26 O41        -10.6440     1.7140    -1.1740 o          1 6TS      -0.567100
     27 C42         -8.9940     3.4770    -1.2510 c3         1 6TS      -0.158400
     28 C43         -9.4050     4.3910    -0.0750 c3         1 6TS      -0.078100
     29 N39         -8.4570     1.1410    -0.7050 ns         1 6TS      -0.189000
     30 C34         -7.4370    -2.2760     0.4380 ca         1 6TS      -0.110000
     31 C33         -7.4440    -0.8780     0.2650 ca         1 6TS       0.291000
     32 N30         -4.5020    -1.3150     0.7280 nb         1 6TS      -0.315000
     33 N6          -2.6020    -2.5740     0.5280 nu         1 6TS      -0.924900
     34 C9           0.1960    -4.9540     0.3020 ca         1 6TS       0.363900
     35 N10          1.2910    -4.1700     0.3730 nb         1 6TS      -0.666000
     36 N16          6.1150     0.7680    -0.8000 ns         1 6TS      -0.507900
     37 C17          7.3880     0.3490    -0.5460 c          1 6TS       0.639100
     38 O18          7.7120    -0.8000    -0.2950 o          1 6TS      -0.542000
     39 O19          8.2170     1.4310    -0.5830 os         1 6TS      -0.477100
     40 C20          9.6330     1.2350    -0.3930 c3         1 6TS       0.199300
     41 C29         -0.1660    -2.2480     0.5510 ca         1 6TS      -0.173000
     42 Cl1         -5.2730     2.1780     2.5970 cl         1 6TS      -0.179000
     43 H44         -2.5090     1.2110     2.8250 h4         1 6TS       0.037100
     44 H46         -1.9520    -5.1230     0.2900 ha         1 6TS       0.122000
     45 H49          4.2760     0.4050     1.1970 hc         1 6TS       0.069700
     46 H48          5.2920    -1.0360     1.1210 hc         1 6TS       0.069700
     47 H50          5.1630    -1.0030    -1.3910 h1         1 6TS       0.063200
     48 H51          4.1170     0.4300    -1.3180 h1         1 6TS       0.063200
     49 H54         10.6380     3.1390    -0.7960 hc         1 6TS       0.051200
     50 H56         11.4070     3.5630     1.5810 hc         1 6TS       0.041700
     51 H55         10.8460     1.9710     2.0510 hc         1 6TS       0.041700
     52 H58         13.0410     2.5170    -0.0280 hc         1 6TS       0.042700
     53 H57         13.3450     2.2070     1.6600 hc         1 6TS       0.042700
     54 H59         13.0380    -0.1090     1.4430 ha         1 6TS       0.171000
     55 H60         12.3490    -1.2350    -0.6030 ha         1 6TS       0.176000
     56 H61         12.2000     1.5260    -1.8970 hc         1 6TS       0.045700
     57 H62         12.0350    -0.0320    -2.6650 hc         1 6TS       0.045700
     58 H64          9.9040     1.3350    -2.5560 hc         1 6TS       0.055200
     59 H63          9.7770    -0.3000    -1.9280 hc         1 6TS       0.055200
     60 H66         -6.8280     0.8430     1.1740 hn         1 6TS       0.519000
     61 H68         -8.4050    -4.1570    -0.0230 ha         1 6TS       0.117000
     62 H69        -10.1810    -3.1040    -1.4170 ha         1 6TS       0.121000
     63 H70        -10.2230    -0.6620    -1.7440 ha         1 6TS       0.126000
     64 H72         -7.9020     3.5070    -1.3430 hc         1 6TS       0.056700
     65 H75         -9.4530     3.8690    -2.1660 hc         1 6TS       0.056700
     66 H74         -8.9660     4.0350     0.8660 hc         1 6TS       0.045033
     67 H73         -9.0580     5.4170    -0.2480 hc         1 6TS       0.045033
     68 H1         -10.4960     4.4130     0.0390 hc         1 6TS       0.045033
     69 H71         -7.5410     1.5640    -0.6210 hn         1 6TS       0.153000
     70 H67         -6.6810    -2.7460     1.0590 ha         1 6TS       0.139000
     71 H45         -3.2930    -3.2320     0.1700 hn         1 6TS       0.514000
     72 H47          0.3700    -6.0250     0.2010 h4         1 6TS       0.021100
     73 H52          6.0040     1.7570    -0.9830 hn         1 6TS       0.326500
     74 H21          9.8070     0.5070     0.4120 h1         1 6TS       0.074700
     75 H65         -0.2480    -1.1720     0.6220 ha         1 6TS       0.164000
     76 H53          9.3880     3.2330     0.4210 hc         1 6TS       0.051200
@<TRIPOS>BOND
     1     1     2 ar  
     2     1    19 ar  
     3     1    42 1   
     4     2     3 ar  
     5     2    43 1   
     6     3     4 ar  
     7     4    32 ar  
     8     4    33 1   
     9     5     6 ar  
    10     5    33 1   
    11     5    41 ar  
    12     6    34 ar  
    13     6    44 1   
    14     7     8 1   
    15     7    35 ar  
    16     7    41 ar  
    17     8     9 3   
    18     9    10 1   
    19    10    11 1   
    20    10    45 1   
    21    10    46 1   
    22    11    36 1   
    23    11    47 1   
    24    11    48 1   
    25    12    13 1   
    26    12    40 1   
    27    12    49 1   
    28    12    76 1   
    29    13    14 1   
    30    13    50 1   
    31    13    51 1   
    32    14    15 1   
    33    14    52 1   
    34    14    53 1   
    35    15    16 2   
    36    15    54 1   
    37    16    17 1   
    38    16    55 1   
    39    17    18 1   
    40    17    56 1   
    41    17    57 1   
    42    18    40 1   
    43    18    58 1   
    44    18    59 1   
    45    19    20 1   
    46    19    32 ar  
    47    20    31 1   
    48    20    60 1   
    49    21    22 ar  
    50    21    30 ar  
    51    21    61 1   
    52    22    23 ar  
    53    22    62 1   
    54    23    24 ar  
    55    23    63 1   
    56    24    29 1   
    57    24    31 ar  
    58    25    26 2   
    59    25    27 1   
    60    25    29 1   
    61    27    28 1   
    62    27    64 1   
    63    27    65 1   
    64    28    66 1   
    65    28    67 1   
    66    28    68 1   
    67    29    69 1   
    68    30    31 ar  
    69    30    70 1   
    70    33    71 1   
    71    34    35 ar  
    72    34    72 1   
    73    36    37 1   
    74    36    73 1   
    75    37    38 2   
    76    37    39 1   
    77    39    40 1   
    78    40    74 1   
    79    41    75 1   
@<TRIPOS>SUBSTRUCTURE
     1 6TS         1 TEMP              0 ****  ****    0 ROOT
