@<TRIPOS>MOLECULE
6TS
   76    79     1     0     0
SMALL
bcc


@<TRIPOS>ATOM
      1 C2          -4.2440     1.3270     0.7290 ca         1 6TS      -0.338200
      2 C3          -2.8800     1.2080     0.7370 ca         1 6TS       0.515200
      3 N4          -2.2540     0.0450     0.5600 nb         1 6TS      -0.777000
      4 C5          -3.0370    -1.0020     0.3690 ca         1 6TS       0.952900
      5 C7          -1.1840    -2.6670     0.1450 ca         1 6TS       0.215600
      6 C8          -0.9600    -4.0340    -0.0620 ca         1 6TS      -0.314300
      7 C11          1.2000    -2.4430     0.2430 ca         1 6TS       0.562300
      8 C12          2.3610    -1.6190     0.4040 cg         1 6TS      -0.226000
      9 C13          3.3410    -0.9330     0.5450 c1         1 6TS      -0.096100
     10 C14          4.5310    -0.1080     0.6800 c3         1 6TS      -0.021300
     11 C15          5.0530     0.3610    -0.6860 c3         1 6TS       0.123000
     12 C22         10.5180     2.2140     0.5730 c3         1 6TS      -0.078400
     13 C23         11.4980     1.7270     1.6450 c3         1 6TS      -0.067400
     14 C24         12.8050     1.0920     1.1550 c3         1 6TS      -0.043200
     15 C25         12.6410    -0.2730     0.5460 c2         1 6TS      -0.171200
     16 C26         12.2260    -0.5050    -0.6970 c2         1 6TS      -0.164200
     17 C27         11.8300     0.5750    -1.6550 c3         1 6TS      -0.040200
     18 C28         10.3270     0.8650    -1.6130 c3         1 6TS      -0.093400
     19 C31         -4.9970     0.1470     0.5180 ca         1 6TS       0.770200
     20 N32         -6.3460     0.1990     0.4920 nu         1 6TS      -0.734300
     21 C35         -8.0360    -3.1060     0.4810 ca         1 6TS      -0.112000
     22 C36         -9.2570    -2.7590    -0.0800 ca         1 6TS      -0.135000
     23 C37         -9.4820    -1.4450    -0.4580 ca         1 6TS      -0.098000
     24 C38         -8.4980    -0.4820    -0.2800 ca         1 6TS       0.005600
     25 C40         -9.7310     1.6290    -0.1930 c          1 6TS       0.666100
     26 O41        -10.4620     1.2620     0.7060 o          1 6TS      -0.567100
     27 C42         -9.8700     2.9660    -0.8860 c3         1 6TS      -0.158400
     28 C43        -10.6550     3.9830    -0.0790 c3         1 6TS      -0.078100
     29 N39         -8.7160     0.8560    -0.6740 ns         1 6TS      -0.515100
     30 C34         -7.0450    -2.1560     0.6690 ca         1 6TS      -0.128000
     31 C33         -7.2660    -0.8320     0.2910 ca         1 6TS       0.152600
     32 N30         -4.3680    -0.9990     0.3390 nb         1 6TS      -0.841000
     33 N6          -2.4920    -2.2430     0.1770 nu         1 6TS      -0.731300
     34 C9           0.3360    -4.5060    -0.1020 ca         1 6TS       0.429200
     35 N10          1.4130    -3.7450     0.0460 nb         1 6TS      -0.666000
     36 N16          6.2470     1.1570    -0.5800 ns         1 6TS      -0.574900
     37 C17          7.4660     0.6000    -0.4400 c          1 6TS       0.755100
     38 O18          7.6740    -0.5980    -0.4300 o          1 6TS      -0.591000
     39 O19          8.4100     1.5360    -0.3240 os         1 6TS      -0.453900
     40 C20          9.7870     1.1170    -0.2080 c3         1 6TS       0.176100
     41 C29         -0.0610    -1.8530     0.3010 ca         1 6TS      -0.256300
     42 CL1         -5.0130     2.8540     0.9580 cl         1 6TS      -0.087400
     43 H44         -2.2570     2.0810     0.8950 h4         1 6TS       0.037100
     44 H46         -1.7880    -4.7200    -0.1890 ha         1 6TS       0.140000
     45 H49          4.3060     0.7590     1.3060 hc         1 6TS       0.069700
     46 H48          5.3080    -0.6800     1.1930 hc         1 6TS       0.069700
     47 H50          5.2450    -0.5020    -1.3230 h1         1 6TS       0.063200
     48 H51          4.2930     0.9630    -1.1810 h1         1 6TS       0.063200
     49 H54         11.0290     2.8980    -0.1130 hc         1 6TS       0.051200
     50 H56         11.7610     2.5920     2.2590 hc         1 6TS       0.041700
     51 H55         10.9810     1.0300     2.3130 hc         1 6TS       0.041700
     52 H58         13.2840     1.7750     0.4470 hc         1 6TS       0.042700
     53 H57         13.4850     1.0190     2.0060 hc         1 6TS       0.042700
     54 H59         12.8520    -1.1220     1.1900 ha         1 6TS       0.121000
     55 H60         12.1050    -1.5320    -1.0290 ha         1 6TS       0.126000
     56 H61         12.3800     1.4920    -1.4330 hc         1 6TS       0.045700
     57 H62         12.0960     0.2950    -2.6760 hc         1 6TS       0.045700
     58 H64         10.1230     1.7410    -2.2350 hc         1 6TS       0.055200
     59 H63          9.7810     0.0270    -2.0550 hc         1 6TS       0.055200
     60 H66         -6.7520     1.1220     0.5320 hn         1 6TS       0.463800
     61 H68         -7.8480    -4.1280     0.7830 ha         1 6TS       0.135000
     62 H69        -10.0260    -3.5050    -0.2270 ha         1 6TS       0.139000
     63 H70        -10.4210    -1.1610    -0.9150 ha         1 6TS       0.144000
     64 H72         -8.8820     3.3570    -1.1410 hc         1 6TS       0.056700
     65 H75        -10.3670     2.7790    -1.8440 hc         1 6TS       0.056700
     66 H74        -10.1580     4.2190     0.8620 hc         1 6TS       0.045033
     67 H73        -10.7550     4.9100    -0.6420 hc         1 6TS       0.045033
     68 H1         -11.6570     3.6250     0.1510 hc         1 6TS       0.045033
     69 H71         -8.1740     1.2150    -1.4460 hn         1 6TS       0.319500
     70 H67         -6.1070    -2.4450     1.1160 ha         1 6TS       0.157000
     71 H45         -3.1860    -2.9640     0.0460 hn         1 6TS       0.458800
     72 H47          0.5110    -5.5640    -0.2610 h4         1 6TS       0.021100
     73 H52          6.1540     2.1580    -0.5110 hn         1 6TS       0.326500
     74 H21          9.8140     0.1900     0.3680 h1         1 6TS       0.074700
     75 H65         -0.1530    -0.7930     0.4620 ha         1 6TS       0.182000
     76 H53          9.7650     2.8160     1.0880 hc         1 6TS       0.051200
@<TRIPOS>BOND
     1     1     2 ar  
     2     1    19 ar  
     3     1    42 1   
     4     2     3 ar  
     5     2    43 1   
     6     3     4 ar  
     7     4    32 ar  
     8     4    33 1   
     9     5     6 ar  
    10     5    33 1   
    11     5    41 ar  
    12     6    34 ar  
    13     6    44 1   
    14     7     8 1   
    15     7    35 ar  
    16     7    41 ar  
    17     8     9 3   
    18     9    10 1   
    19    10    11 1   
    20    10    45 1   
    21    10    46 1   
    22    11    36 1   
    23    11    47 1   
    24    11    48 1   
    25    12    13 1   
    26    12    40 1   
    27    12    49 1   
    28    12    76 1   
    29    13    14 1   
    30    13    50 1   
    31    13    51 1   
    32    14    15 1   
    33    14    52 1   
    34    14    53 1   
    35    15    16 2   
    36    15    54 1   
    37    16    17 1   
    38    16    55 1   
    39    17    18 1   
    40    17    56 1   
    41    17    57 1   
    42    18    40 1   
    43    18    58 1   
    44    18    59 1   
    45    19    20 1   
    46    19    32 ar  
    47    20    31 1   
    48    20    60 1   
    49    21    22 ar  
    50    21    30 ar  
    51    21    61 1   
    52    22    23 ar  
    53    22    62 1   
    54    23    24 ar  
    55    23    63 1   
    56    24    29 1   
    57    24    31 ar  
    58    25    26 2   
    59    25    27 1   
    60    25    29 1   
    61    27    28 1   
    62    27    64 1   
    63    27    65 1   
    64    28    66 1   
    65    28    67 1   
    66    28    68 1   
    67    29    69 1   
    68    30    31 ar  
    69    30    70 1   
    70    33    71 1   
    71    34    35 ar  
    72    34    72 1   
    73    36    37 1   
    74    36    73 1   
    75    37    38 2   
    76    37    39 1   
    77    39    40 1   
    78    40    74 1   
    79    41    75 1   
@<TRIPOS>SUBSTRUCTURE
     1 6TS         1 TEMP              0 ****  ****    0 ROOT
