@<TRIPOS>MOLECULE
6TT
   50    52     1     0     0
SMALL
No Charge or Current Charge


@<TRIPOS>ATOM
      1 C1           8.3390     0.9900    -0.0020 c3         1 6TT       0.146900
      2 C3           6.1370    -0.0660    -0.3450 ca         1 6TT       0.119100
      3 C6           4.5860    -2.1120    -1.3360 ca         1 6TT       0.252900
      4 C7           3.9370    -1.0500    -0.6440 ca         1 6TT       0.293000
      5 C11          0.9380     2.1030    -0.2070 ca         1 6TT       0.225900
      6 C12         -0.3830     1.7150     0.0850 ca         1 6TT      -0.441300
      7 C13         -0.6170     0.3370     0.1960 ca         1 6TT       0.475900
      8 C15         -2.4140    -1.4210     0.7210 ca         1 6TT       0.270000
      9 C16         -1.6920    -2.3500     1.4960 ca         1 6TT      -0.092000
     10 C19         -4.2530    -3.0230     0.5710 ca         1 6TT      -0.086000
     11 C22         -5.7900    -0.6640    -0.7820 c          1 6TT       0.602100
     12 C24         -6.1300     0.4250    -1.8090 c3         1 6TT      -0.159400
     13 C25         -6.6990     1.6920    -1.1320 c3         1 6TT      -0.077100
     14 C27         -1.4800     2.7600     0.2730 c3         1 6TT       0.382300
     15 C31          4.7480    -0.0180    -0.1330 ca         1 6TT      -0.143000
     16 O23         -6.6620    -1.3310    -0.2370 o          1 6TT      -0.570100
     17 C20         -3.7150    -1.7530     0.2640 ca         1 6TT      -0.067000
     18 C18         -3.5180    -3.9430     1.3370 ca         1 6TT      -0.106000
     19 C17         -2.2390    -3.6070     1.8020 ca         1 6TT      -0.104000
     20 N14         -1.8880    -0.1490     0.4490 nu         1 6TT      -0.932900
     21 N26          0.3560    -0.5660     0.0150 nb         1 6TT      -0.328000
     22 C9           1.5740    -0.0870    -0.2470 ca         1 6TT       0.444900
     23 N8           2.5380    -1.0620    -0.4500 nu         1 6TT      -0.913900
     24 N5           5.9260    -2.1760    -1.5510 nb         1 6TT      -0.615000
     25 C4           6.6820    -1.1630    -1.0630 ca         1 6TT       0.222900
     26 O2           6.9100     0.9600     0.1660 os         1 6TT      -0.332100
     27 N10          1.9190     1.2020    -0.3770 nb         1 6TT      -0.261000
     28 F28         -2.5100     2.5660    -0.5820 f          1 6TT      -0.116667
     29 F29         -1.9910     2.7250     1.5240 f          1 6TT      -0.116667
     30 F30         -1.0430     4.0230     0.0690 f          1 6TT      -0.116667
     31 H33          8.7590     1.8840     0.4760 h1         1 6TT       0.044700
     32 H34          8.8050     0.1090     0.4580 h1         1 6TT       0.044700
     33 H32          8.6070     1.0150    -1.0660 h1         1 6TT       0.044700
     34 H36          4.0040    -2.9400    -1.7380 h4         1 6TT       0.019100
     35 H38          1.2270     3.1480    -0.3110 h4         1 6TT       0.039100
     36 H40         -0.7110    -2.0930     1.8830 ha         1 6TT       0.132000
     37 H43         -5.2330    -3.3190     0.2060 ha         1 6TT       0.130000
     38 H45         -5.2310     0.7110    -2.3680 hc         1 6TT       0.058700
     39 H49         -6.8870     0.0360    -2.5000 hc         1 6TT       0.058700
     40 H47         -7.6170     1.4600    -0.5780 hc         1 6TT       0.044700
     41 H46         -5.9700     2.1190    -0.4310 hc         1 6TT       0.044700
     42 H1          -6.9370     2.4540    -1.8840 hc         1 6TT       0.044700
     43 H48          4.3250     0.8010     0.4350 ha         1 6TT       0.169000
     44 H44         -3.8420    -0.1860    -1.0660 hn         1 6TT       0.156000
     45 H42         -3.9410    -4.9190     1.5670 ha         1 6TT       0.120000
     46 H41         -1.6720    -4.3160     2.4020 ha         1 6TT       0.118000
     47 H39         -2.5930     0.5770     0.3740 hn         1 6TT       0.517000
     48 H37          2.1120    -1.9840    -0.5580 hn         1 6TT       0.517000
     49 H35          7.7510    -1.2450    -1.2520 h4         1 6TT       0.026100
     50 N21         -4.4320    -0.8210    -0.5450 ns         1 6TT      -0.188000
@<TRIPOS>BOND
     1     1    26 1   
     2     1    31 1   
     3     1    32 1   
     4     1    33 1   
     5     2    15 ar  
     6     2    25 ar  
     7     2    26 1   
     8     3     4 ar  
     9     3    24 ar  
    10     3    34 1   
    11     4    15 ar  
    12     4    23 1   
    13     5     6 ar  
    14     5    27 ar  
    15     5    35 1   
    16     6     7 ar  
    17     6    14 1   
    18     7    20 1   
    19     7    21 ar  
    20     8     9 ar  
    21     8    17 ar  
    22     8    20 1   
    23     9    19 ar  
    24     9    36 1   
    25    10    17 ar  
    26    10    18 ar  
    27    10    37 1   
    28    11    12 1   
    29    11    16 2   
    30    11    50 1   
    31    12    13 1   
    32    12    38 1   
    33    12    39 1   
    34    13    40 1   
    35    13    41 1   
    36    13    42 1   
    37    14    28 1   
    38    14    29 1   
    39    14    30 1   
    40    15    43 1   
    41    17    50 1   
    42    18    19 ar  
    43    18    45 1   
    44    19    46 1   
    45    20    47 1   
    46    21    22 ar  
    47    22    23 1   
    48    22    27 ar  
    49    23    48 1   
    50    24    25 ar  
    51    25    49 1   
    52    44    50 1   
@<TRIPOS>SUBSTRUCTURE
     1 6TT         1 TEMP              0 ****  ****    0 ROOT
