@<TRIPOS>MOLECULE
6TT
   50    52     1     0     0
SMALL
bcc


@<TRIPOS>ATOM
      1 C1           8.1450     0.9530    -0.7660 c3         1 6TT       0.123700
      2 C3           6.0230    -0.0800    -0.5490 ca         1 6TT       0.053800
      3 C6           4.4820    -2.3080    -0.4770 ca         1 6TT       0.318200
      4 C7           3.8550    -1.0620    -0.3050 ca         1 6TT       0.089300
      5 C11          1.0380     2.0870     0.2030 ca         1 6TT       0.554200
      6 C12         -0.2930     1.7840     0.3960 ca         1 6TT      -0.571900
      7 C13         -0.6150     0.3990     0.4060 ca         1 6TT       0.804200
      8 C15         -2.3180    -1.3710     0.6380 ca         1 6TT       0.131600
      9 C16         -1.6590    -2.3480     1.3790 ca         1 6TT      -0.110000
     10 C19         -4.0190    -2.9810     0.0550 ca         1 6TT      -0.104000
     11 C22         -5.4400    -0.3160    -0.6360 c          1 6TT       0.669100
     12 C24         -5.8960     0.7330    -1.6270 c3         1 6TT      -0.159400
     13 C25         -7.2710     1.2970    -1.3200 c3         1 6TT      -0.077100
     14 C27         -1.3050     2.8530     0.5940 c3         1 6TT       0.746200
     15 C31          4.6520     0.0720    -0.3430 ca         1 6TT      -0.161000
     16 O23         -6.1540    -0.7760     0.2330 o          1 6TT      -0.570100
     17 C20         -3.5020    -1.6940    -0.0350 ca         1 6TT       0.025600
     18 C18         -3.3600    -3.9490     0.7960 ca         1 6TT      -0.124000
     19 C17         -2.1790    -3.6300     1.4530 ca         1 6TT      -0.122000
     20 N14         -1.8820    -0.0380     0.5860 nu         1 6TT      -0.739300
     21 N26          0.3330    -0.5020     0.2320 nb         1 6TT      -0.854000
     22 C9           1.5840    -0.0840     0.0610 ca         1 6TT       0.970900
     23 N8           2.4840    -1.0870    -0.1040 nu         1 6TT      -0.720300
     24 N5           5.7750    -2.4380    -0.6700 nb         1 6TT      -0.615000
     25 C4           6.5500    -1.3580    -0.7090 ca         1 6TT       0.288200
     26 O2           6.7450     1.0510    -0.5750 os         1 6TT      -0.308900
     27 N10          1.9900     1.1810     0.0370 nb         1 6TT      -0.787000
     28 F28         -2.2920     2.7920    -0.3230 f          1 6TT      -0.237967
     29 F29         -1.9120     2.7650     1.7900 f          1 6TT      -0.237967
     30 F30         -0.7790     4.0740     0.5150 f          1 6TT      -0.237967
     31 H33          8.5300     1.9690    -0.7460 h1         1 6TT       0.044700
     32 H34          8.6240     0.3770     0.0300 h1         1 6TT       0.044700
     33 H32          8.3930     0.5000    -1.7300 h1         1 6TT       0.044700
     34 H36          3.8900    -3.2180    -0.4510 h4         1 6TT       0.019100
     35 H38          1.3690     3.1180     0.1810 h4         1 6TT       0.039100
     36 H40         -0.7510    -2.1040     1.9090 ha         1 6TT       0.150000
     37 H43         -4.9280    -3.2300    -0.4750 ha         1 6TT       0.148000
     38 H45         -5.1540     1.5350    -1.6600 hc         1 6TT       0.058700
     39 H49         -5.8830     0.2810    -2.6230 hc         1 6TT       0.058700
     40 H47         -8.0370     0.5220    -1.3380 hc         1 6TT       0.044700
     41 H46         -7.3000     1.7760    -0.3420 hc         1 6TT       0.044700
     42 H1          -7.5390     2.0460    -2.0640 hc         1 6TT       0.044700
     43 H48          4.2330     1.0580    -0.2150 ha         1 6TT       0.187000
     44 H44         -3.6130    -0.2740    -1.5480 hn         1 6TT       0.322500
     45 H42         -3.7640    -4.9500     0.8540 ha         1 6TT       0.138000
     46 H41         -1.6620    -4.3790     2.0380 ha         1 6TT       0.136000
     47 H39         -2.6280     0.6380     0.5640 hn         1 6TT       0.461800
     48 H37          2.0670    -2.0070    -0.0710 hn         1 6TT       0.461800
     49 H35          7.6070    -1.5290    -0.8710 h4         1 6TT       0.026100
     50 N21         -4.1430    -0.7000    -0.8010 ns         1 6TT      -0.514100
@<TRIPOS>BOND
     1     1    26 1   
     2     1    31 1   
     3     1    32 1   
     4     1    33 1   
     5     2    15 ar  
     6     2    25 ar  
     7     2    26 1   
     8     3     4 ar  
     9     3    24 ar  
    10     3    34 1   
    11     4    15 ar  
    12     4    23 1   
    13     5     6 ar  
    14     5    27 ar  
    15     5    35 1   
    16     6     7 ar  
    17     6    14 1   
    18     7    20 1   
    19     7    21 ar  
    20     8     9 ar  
    21     8    17 ar  
    22     8    20 1   
    23     9    19 ar  
    24     9    36 1   
    25    10    17 ar  
    26    10    18 ar  
    27    10    37 1   
    28    11    12 1   
    29    11    16 2   
    30    11    50 1   
    31    12    13 1   
    32    12    38 1   
    33    12    39 1   
    34    13    40 1   
    35    13    41 1   
    36    13    42 1   
    37    14    28 1   
    38    14    29 1   
    39    14    30 1   
    40    15    43 1   
    41    17    50 1   
    42    18    19 ar  
    43    18    45 1   
    44    19    46 1   
    45    20    47 1   
    46    21    22 ar  
    47    22    23 1   
    48    22    27 ar  
    49    23    48 1   
    50    24    25 ar  
    51    25    49 1   
    52    44    50 1   
@<TRIPOS>SUBSTRUCTURE
     1 6TT         1 TEMP              0 ****  ****    0 ROOT
