@<TRIPOS>MOLECULE
6TU
   40    42     1     0     0
SMALL
bcc


@<TRIPOS>ATOM
      1 C10          0.7650    -0.6490    -0.0920 c          1 6TU       0.730100
      2 C13          0.3860     1.6730    -0.3540 c5         1 6TU       0.175000
      3 C15         -1.5680     2.9290     0.6850 c2         1 6TU      -0.158200
      4 C17         -1.5330     0.0600    -0.5410 ca         1 6TU       0.130600
      5 C20         -4.2200    -0.4470    -1.0720 ca         1 6TU      -0.243000
      6 C21         -3.6130    -0.9980     0.0550 ca         1 6TU       0.145100
      7 C22         -2.2690    -0.7370     0.3200 ca         1 6TU      -0.156000
      8 C24         -5.6150    -2.0660     0.7480 c3         1 6TU       0.130700
      9 C19         -3.4650     0.3490    -1.9250 ca         1 6TU      -0.090000
     10 C01          4.4040     0.4010     0.0520 ca         1 6TU      -0.127000
     11 C02          4.1940     1.7650    -0.1360 ca         1 6TU      -0.128000
     12 C03          2.9130     2.2850    -0.2780 ca         1 6TU      -0.159000
     13 C04          1.8540     1.3970    -0.2330 ca         1 6TU      -0.106300
     14 C05          2.0670     0.0430    -0.0280 ca         1 6TU      -0.141600
     15 C06          3.3400    -0.4960     0.1280 ca         1 6TU      -0.035600
     16 C07          3.6020    -1.9680     0.4030 c          1 6TU       0.935200
     17 O08          4.1580    -2.6000    -0.5110 o          1 6TU      -0.804300
     18 O09          3.2700    -2.3690     1.5290 o          1 6TU      -0.804300
     19 O11          0.5460    -1.8440    -0.0510 o          1 6TU      -0.560500
     20 N12         -0.1780     0.3300    -0.2660 n          1 6TU      -0.425000
     21 C14         -0.1100     2.6060     0.7580 c3         1 6TU      -0.054200
     22 C16         -2.4330     2.7130     1.6670 c2         1 6TU      -0.220000
     23 C18         -2.1270     0.6000    -1.6800 ca         1 6TU      -0.194000
     24 O23         -4.2450    -1.7800     0.9500 os         1 6TU      -0.314900
     25 H1           0.1550     2.1160    -1.3280 h1         1 6TU       0.049700
     26 H2          -1.9150     3.3790    -0.2410 ha         1 6TU       0.108000
     27 H3          -5.2620    -0.6240    -1.2990 ha         1 6TU       0.122000
     28 H4          -1.8190    -1.1360     1.2190 ha         1 6TU       0.168000
     29 H5          -6.2260    -1.1590     0.7530 h1         1 6TU       0.033033
     30 H6          -5.7860    -2.6000    -0.1910 h1         1 6TU       0.033033
     31 H7          -5.9240    -2.7020     1.5730 h1         1 6TU       0.033033
     32 H8          -3.9340     0.7710    -2.8040 ha         1 6TU       0.116000
     33 H9           5.4190     0.0370     0.1550 ha         1 6TU       0.136000
     34 H10          5.0460     2.4300    -0.1780 ha         1 6TU       0.107000
     35 H11          2.7610     3.3470    -0.4270 ha         1 6TU       0.110000
     36 H13          0.1410     2.1710     1.7290 hc         1 6TU       0.056200
     37 H14          0.4630     3.5340     0.6660 hc         1 6TU       0.056200
     38 H15         -3.4780     2.9750     1.5700 ha         1 6TU       0.108500
     39 H16         -2.1290     2.2540     2.6000 ha         1 6TU       0.108500
     40 H17         -1.5530     1.2070    -2.3670 ha         1 6TU       0.133000
@<TRIPOS>BOND
     1     1    14 1   
     2     1    19 2   
     3     1    20 1   
     4     2    13 1   
     5     2    20 1   
     6     2    21 1   
     7     2    25 1   
     8     3    21 1   
     9     3    22 2   
    10     3    26 1   
    11     4     7 ar  
    12     4    20 1   
    13     4    23 ar  
    14     5     6 ar  
    15     5     9 ar  
    16     5    27 1   
    17     6     7 ar  
    18     6    24 1   
    19     7    28 1   
    20     8    24 1   
    21     8    29 1   
    22     8    30 1   
    23     8    31 1   
    24     9    23 ar  
    25     9    32 1   
    26    10    11 ar  
    27    10    15 ar  
    28    10    33 1   
    29    11    12 ar  
    30    11    34 1   
    31    12    13 ar  
    32    12    35 1   
    33    13    14 ar  
    34    14    15 ar  
    35    15    16 1   
    36    16    17 1   
    37    16    18 1   
    38    21    36 1   
    39    21    37 1   
    40    22    38 1   
    41    22    39 1   
    42    23    40 1   
@<TRIPOS>SUBSTRUCTURE
     1 6TU         1 TEMP              0 ****  ****    0 ROOT
