@<TRIPOS>MOLECULE
6TU
   40    42     1     0     0
SMALL
No Charge or Current Charge


@<TRIPOS>ATOM
      1 C10          0.7350    -0.6160     0.0100 c          1 6TU       0.587600
      2 C13          0.4280     1.7540    -0.3810 c5         1 6TU       0.175000
      3 C15         -1.4500     3.2480     0.5800 c2         1 6TU      -0.208200
      4 C17         -1.6320     0.1930    -0.3760 ca         1 6TU       0.038000
      5 C20         -4.3240    -0.4600    -0.9700 ca         1 6TU      -0.225000
      6 C21         -3.6420    -1.1440     0.0570 ca         1 6TU       0.145100
      7 C22         -2.3000    -0.8330     0.3260 ca         1 6TU      -0.138000
      8 C24         -5.6110    -2.5210     0.6210 c3         1 6TU       0.153900
      9 C19         -3.6480     0.5070    -1.7290 ca         1 6TU      -0.072000
     10 C01          4.4660     0.3010     0.0720 ca         1 6TU      -0.109000
     11 C02          4.3000     1.6780    -0.1900 ca         1 6TU      -0.110000
     12 C03          3.0110     2.2230    -0.3480 ca         1 6TU      -0.141000
     13 C04          1.8980     1.3740    -0.2460 ca         1 6TU      -0.106300
     14 C05          2.0680     0.0240     0.0060 ca         1 6TU      -0.141600
     15 C06          3.3440    -0.5540     0.1790 ca         1 6TU      -0.035600
     16 C07          3.5340    -2.0230     0.4750 c          1 6TU       0.724600
     17 O08          4.0980    -2.7100    -0.3660 o          1 6TU      -0.699000
     18 O09          3.2030    -2.4370     1.5780 o          1 6TU      -0.699000
     19 O11          0.5070    -1.8140     0.1180 o          1 6TU      -0.485000
     20 N12         -0.2150     0.4050    -0.2140 n          1 6TU      -0.265400
     21 C14         -0.0070     2.7910     0.6880 c3         1 6TU      -0.054200
     22 C16         -2.3910     3.0710     1.5200 c2         1 6TU      -0.320000
     23 C18         -2.3060     0.8100    -1.4500 ca         1 6TU      -0.176000
     24 O23         -4.2420    -2.1270     0.8180 os         1 6TU      -0.338100
     25 H1           0.2420     2.1650    -1.3820 h1         1 6TU       0.049700
     26 H2          -1.6950     3.7560    -0.3560 ha         1 6TU       0.158000
     27 H3          -5.3610    -0.6780    -1.2070 ha         1 6TU       0.104000
     28 H4          -1.7910    -1.3760     1.1160 ha         1 6TU       0.150000
     29 H5          -6.2880    -1.6720     0.7820 h1         1 6TU       0.033033
     30 H6          -5.7630    -2.9050    -0.3960 h1         1 6TU       0.033033
     31 H7          -5.8840    -3.3130     1.3290 h1         1 6TU       0.033033
     32 H8          -4.1600     1.0140    -2.5450 ha         1 6TU       0.098000
     33 H9           5.4670    -0.1060     0.1960 ha         1 6TU       0.118000
     34 H10          5.1730     2.3220    -0.2680 ha         1 6TU       0.089000
     35 H11          2.8830     3.2840    -0.5490 ha         1 6TU       0.092000
     36 H13          0.1800     2.3730     1.6850 hc         1 6TU       0.056200
     37 H14          0.6410     3.6720     0.6120 hc         1 6TU       0.056200
     38 H15         -3.4130     3.4230     1.3760 ha         1 6TU       0.158500
     39 H16         -2.1760     2.5640     2.4620 ha         1 6TU       0.158500
     40 H17         -1.7950     1.5360    -2.0750 ha         1 6TU       0.115000
@<TRIPOS>BOND
     1     1    14 1   
     2     1    19 2   
     3     1    20 1   
     4     2    13 1   
     5     2    20 1   
     6     2    21 1   
     7     2    25 1   
     8     3    21 1   
     9     3    22 2   
    10     3    26 1   
    11     4     7 ar  
    12     4    20 1   
    13     4    23 ar  
    14     5     6 ar  
    15     5     9 ar  
    16     5    27 1   
    17     6     7 ar  
    18     6    24 1   
    19     7    28 1   
    20     8    24 1   
    21     8    29 1   
    22     8    30 1   
    23     8    31 1   
    24     9    23 ar  
    25     9    32 1   
    26    10    11 ar  
    27    10    15 ar  
    28    10    33 1   
    29    11    12 ar  
    30    11    34 1   
    31    12    13 ar  
    32    12    35 1   
    33    13    14 ar  
    34    14    15 ar  
    35    15    16 1   
    36    16    17 1   
    37    16    18 1   
    38    21    36 1   
    39    21    37 1   
    40    22    38 1   
    41    22    39 1   
    42    23    40 1   
@<TRIPOS>SUBSTRUCTURE
     1 6TU         1 TEMP              0 ****  ****    0 ROOT
