@<TRIPOS>MOLECULE
6TV
   39    40     1     0     0
SMALL
bcc


@<TRIPOS>ATOM
      1 C10          1.9360     0.4790     0.1630 ca         1 6TV       0.078000
      2 C11          1.7560     0.7450     1.5390 ca         1 6TV      -0.236300
      3 C12          2.1130     1.9680     2.0350 ca         1 6TV       0.407200
      4 C13          2.8100     2.7430     0.0210 ca         1 6TV       0.435200
      5 O1           1.7770    -2.4000     1.5480 o          1 6TV      -0.613800
      6 O            0.7690    -3.2030    -0.5920 o          1 6TV      -0.613800
      7 N1          -0.4630    -1.5250     0.9300 n7         1 6TV      -0.840100
      8 C4          -1.5540    -1.3190    -0.0160 c3         1 6TV       0.204800
      9 C3          -2.5720    -0.3710     0.5980 c3         1 6TV       0.156800
     10 N           -3.6840    -0.1870    -0.3080 n7         1 6TV      -0.810200
     11 C2          -4.6330     0.8090     0.1540 c3         1 6TV       0.159800
     12 C1          -5.7920     0.9680    -0.8170 c3         1 6TV      -0.079400
     13 C           -6.7840     2.0280    -0.3610 c3         1 6TV      -0.089100
     14 C5           1.6140    -0.7330    -0.5080 ca         1 6TV      -0.266500
     15 N2           2.6380     2.9670     1.2940 nb         1 6TV      -0.664000
     16 C9           2.4820     1.5250    -0.6200 ca         1 6TV      -0.189300
     17 C8           2.6920     1.3570    -2.0050 ca         1 6TV      -0.040000
     18 C7           2.3690     0.1790    -2.6140 ca         1 6TV      -0.162000
     19 C6           1.8250    -0.8740    -1.8550 ca         1 6TV       0.002000
     20 H1           1.3450     0.0110     2.2130 ha         1 6TV       0.158000
     21 H2           1.9780     2.1810     3.0890 h4         1 6TV       0.023100
     22 H3           3.2310     3.5460    -0.5750 h4         1 6TV       0.019100
     23 H4          -0.7360    -1.9810     1.7970 hn         1 6TV       0.430800
     24 H5          -1.1570    -0.8640    -0.9250 h1         1 6TV       0.057200
     25 H6          -2.0270    -2.2640    -0.2980 h1         1 6TV       0.057200
     26 H7          -2.8780    -0.7470     1.5880 h1         1 6TV       0.039200
     27 H8          -2.0910     0.5960     0.7680 h1         1 6TV       0.039200
     28 H9          -4.1690    -1.0710    -0.4170 hn         1 6TV       0.350800
     29 H11         -5.0290     0.5810     1.1570 h1         1 6TV       0.030200
     30 H12         -4.1050     1.7650     0.2460 h1         1 6TV       0.030200
     31 H13         -5.3990     1.2230    -1.8050 hc         1 6TV       0.045200
     32 H14         -6.3060     0.0080    -0.9260 hc         1 6TV       0.045200
     33 H15         -7.6030     2.1380    -1.0720 hc         1 6TV       0.034033
     34 H16         -7.2200     1.7750     0.6070 hc         1 6TV       0.034033
     35 H17         -6.3010     3.0020    -0.2600 hc         1 6TV       0.034033
     36 H18          3.1120     2.1760    -2.5760 ha         1 6TV       0.138000
     37 H19          2.5240     0.0410    -3.6750 ha         1 6TV       0.143000
     38 H20          1.5720    -1.8000    -2.3530 ha         1 6TV       0.163000
     39 S            0.9610    -2.1280     0.3730 sy         1 6TV       1.290200
@<TRIPOS>BOND
     1     1     2 ar  
     2     1    14 ar  
     3     1    16 ar  
     4     2     3 ar  
     5     2    20 1   
     6     3    15 ar  
     7     3    21 1   
     8     4    15 ar  
     9     4    16 ar  
    10     4    22 1   
    11     5    39 2   
    12     6    39 2   
    13     7     8 1   
    14     7    23 1   
    15     7    39 1   
    16     8     9 1   
    17     8    24 1   
    18     8    25 1   
    19     9    10 1   
    20     9    26 1   
    21     9    27 1   
    22    10    11 1   
    23    10    28 1   
    24    11    12 1   
    25    11    29 1   
    26    11    30 1   
    27    12    13 1   
    28    12    31 1   
    29    12    32 1   
    30    13    33 1   
    31    13    34 1   
    32    13    35 1   
    33    14    19 ar  
    34    14    39 1   
    35    16    17 ar  
    36    17    18 ar  
    37    17    36 1   
    38    18    19 ar  
    39    18    37 1   
    40    19    38 1   
@<TRIPOS>SUBSTRUCTURE
     1 6TV         1 TEMP              0 ****  ****    0 ROOT
