@<TRIPOS>MOLECULE
6TV
   39    40     1     0     0
SMALL
No Charge or Current Charge


@<TRIPOS>ATOM
      1 C10          1.9970     0.4560     0.0900 ca         1 6TV       0.078000
      2 C11          1.8180     0.8440     1.4370 ca         1 6TV      -0.153000
      3 C12          2.1670     2.1410     1.8410 ca         1 6TV       0.341900
      4 C13          2.8430     2.7100    -0.2920 ca         1 6TV       0.369900
      5 O1           1.8320    -2.2870     1.8260 o          1 6TV      -0.543000
      6 O            0.6620    -3.3260    -0.2020 o          1 6TV      -0.543000
      7 N1          -0.4360    -1.5290     1.1400 n7         1 6TV      -0.895300
      8 C4          -1.3170    -0.9070     0.1280 c3         1 6TV       0.204800
      9 C3          -2.6560    -0.4420     0.7630 c3         1 6TV       0.156800
     10 N           -3.5640     0.1680    -0.2390 n7         1 6TV      -0.865400
     11 C2          -4.8270     0.6980     0.3030 c3         1 6TV       0.159800
     12 C1          -5.6690     1.3230    -0.8260 c3         1 6TV      -0.079400
     13 C           -7.0060     1.9050    -0.3270 c3         1 6TV      -0.089100
     14 C5           1.6710    -0.8340    -0.4150 ca         1 6TV      -0.266500
     15 N2           2.6740     3.0680     1.0010 nb         1 6TV      -0.664000
     16 C9           2.5190     1.4330    -0.7890 ca         1 6TV      -0.124000
     17 C8           2.7140     1.1420    -2.1500 ca         1 6TV      -0.022000
     18 C7           2.3840    -0.1260    -2.6460 ca         1 6TV      -0.144000
     19 C6           1.8660    -1.1080    -1.7870 ca         1 6TV       0.020000
     20 H1           1.4080     0.1770     2.1850 ha         1 6TV       0.140000
     21 H2           2.0330     2.4500     2.8770 h4         1 6TV       0.023100
     22 H3           3.2480     3.4770    -0.9500 h4         1 6TV       0.019100
     23 H4          -0.8840    -2.3710     1.5000 hn         1 6TV       0.486000
     24 H5          -0.8350    -0.0290    -0.3220 h1         1 6TV       0.057200
     25 H6          -1.5380    -1.6150    -0.6820 h1         1 6TV       0.057200
     26 H7          -3.1420    -1.3050     1.2370 h1         1 6TV       0.039200
     27 H8          -2.4270     0.2840     1.5560 h1         1 6TV       0.039200
     28 H9          -3.7940    -0.5440    -0.9440 hn         1 6TV       0.406000
     29 H11         -5.4050    -0.1050     0.7810 h1         1 6TV       0.030200
     30 H12         -4.6240     1.4650     1.0640 h1         1 6TV       0.030200
     31 H13         -5.0930     2.1210    -1.3110 hc         1 6TV       0.045200
     32 H14         -5.8760     0.5640    -1.5910 hc         1 6TV       0.045200
     33 H15         -7.5710     2.3380    -1.1610 hc         1 6TV       0.034033
     34 H16         -7.6220     1.1230     0.1340 hc         1 6TV       0.034033
     35 H17         -6.8330     2.6930     0.4160 hc         1 6TV       0.034033
     36 H18          3.1150     1.8970    -2.8240 ha         1 6TV       0.120000
     37 H19          2.5320    -0.3510    -3.6990 ha         1 6TV       0.125000
     38 H20          1.6230    -2.0850    -2.2010 ha         1 6TV       0.145000
     39 S            1.0130    -2.1660     0.6180 sy         1 6TV       1.148600
@<TRIPOS>BOND
     1     1     2 ar  
     2     1    14 ar  
     3     1    16 ar  
     4     2     3 ar  
     5     2    20 1   
     6     3    15 ar  
     7     3    21 1   
     8     4    15 ar  
     9     4    16 ar  
    10     4    22 1   
    11     5    39 2   
    12     6    39 2   
    13     7     8 1   
    14     7    23 1   
    15     7    39 1   
    16     8     9 1   
    17     8    24 1   
    18     8    25 1   
    19     9    10 1   
    20     9    26 1   
    21     9    27 1   
    22    10    11 1   
    23    10    28 1   
    24    11    12 1   
    25    11    29 1   
    26    11    30 1   
    27    12    13 1   
    28    12    31 1   
    29    12    32 1   
    30    13    33 1   
    31    13    34 1   
    32    13    35 1   
    33    14    19 ar  
    34    14    39 1   
    35    16    17 ar  
    36    17    18 ar  
    37    17    36 1   
    38    18    19 ar  
    39    18    37 1   
    40    19    38 1   
@<TRIPOS>SUBSTRUCTURE
     1 6TV         1 TEMP              0 ****  ****    0 ROOT
