@<TRIPOS>MOLECULE
6TW
   59    63     1     0     0
SMALL
No Charge or Current Charge


@<TRIPOS>ATOM
      1 C2           1.8240     1.5210    -0.9970 cc         1 6TW       0.747800
      2 C1          -1.9710     0.2540     0.8870 c5         1 6TW       0.317300
      3 C13         -2.0660     0.2010     2.4300 c5         1 6TW      -0.163400
      4 C3          -2.9790    -1.0330     2.5990 c5         1 6TW       0.144300
      5 C4          -4.0360    -0.7440     1.4810 c5         1 6TW       0.128300
      6 O3          -2.2500    -2.2440     2.3670 oh         1 6TW      -0.705000
      7 O4          -3.3120    -0.0380     0.4300 os         1 6TW      -0.482000
      8 C5          -5.2390     0.1140     1.9670 c3         1 6TW       0.182600
      9 C10          3.7670    -3.3180    -0.6050 ca         1 6TW      -0.043000
     10 C11          4.6570    -2.3440    -0.1160 ca         1 6TW      -0.065000
     11 C12          4.3940    -0.9680    -0.3020 ca         1 6TW      -0.081000
     12 C16          1.7060    -3.8950    -1.7740 ca         1 6TW      -0.097000
     13 C17          1.9810    -5.2610    -1.5860 ca         1 6TW      -0.101000
     14 C18          3.1460    -5.6560    -0.9070 ca         1 6TW      -0.107000
     15 C19          4.0380    -4.6870    -0.4160 ca         1 6TW      -0.092000
     16 C23          6.6120    -0.0110     0.5710 c          1 6TW       0.601100
     17 C24          7.1400     1.2790     1.1900 c3         1 6TW      -0.183100
     18 C14          3.2100    -0.5770    -0.9740 ca         1 6TW       0.286000
     19 C15         -0.3010     1.7890    -0.2360 cd         1 6TW       0.150400
     20 C20         -0.3190     3.1020    -0.6110 cc         1 6TW       0.095500
     21 C6           0.8640     3.7100    -1.2570 c          1 6TW       0.522500
     22 C7           2.3270    -1.5560    -1.4650 ca         1 6TW      -0.098000
     23 C8          -2.2440     2.7090     0.2670 cd         1 6TW       0.397400
     24 C9           2.5970    -2.9220    -1.2840 ca         1 6TW      -0.021000
     25 N1           1.8810     2.8180    -1.3970 ns         1 6TW      -0.461400
     26 N2           2.9350     0.7780    -1.1990 nu         1 6TW      -0.913200
     27 N3           0.7870     0.9390    -0.4140 nd         1 6TW      -0.694100
     28 N7          -1.5280     3.6810    -0.2980 nc         1 6TW      -0.589000
     29 N9          -1.5240     1.5200     0.3260 na         1 6TW      -0.191500
     30 O25          7.3380    -0.9810     0.3910 o          1 6TW      -0.568100
     31 O5          -6.1560     0.2920     0.8710 os         1 6TW      -0.357100
     32 O6           0.9630     4.8690    -1.6370 o          1 6TW      -0.507000
     33 P           -6.1550     1.6690    -0.0640 p3         1 6TW       0.218300
     34 H1          -1.2820    -0.5210     0.5220 h2         1 6TW       0.109700
     35 H2          -1.0860     0.0820     2.9040 hc         1 6TW       0.072700
     36 H3          -2.5230     1.1080     2.8410 hc         1 6TW       0.072700
     37 H4          -3.4440    -1.0580     3.5950 h1         1 6TW       0.058700
     38 H5          -4.4350    -1.6850     1.0770 h1         1 6TW       0.109700
     39 H6          -1.7090    -2.4190     3.1720 ho         1 6TW       0.511000
     40 H7          -5.7370    -0.4230     2.7840 h1         1 6TW       0.041700
     41 H8          -4.8930     1.0800     2.3590 h1         1 6TW       0.041700
     42 H9           5.5400    -2.6710     0.4250 ha         1 6TW       0.130000
     43 H10          0.8010    -3.5970    -2.3000 ha         1 6TW       0.121000
     44 H11          1.2910    -6.0120    -1.9650 ha         1 6TW       0.116000
     45 H12          3.3570    -6.7130    -0.7600 ha         1 6TW       0.116000
     46 H13          4.9380    -5.0020     0.1080 ha         1 6TW       0.116000
     47 H14          8.2030     1.2210     1.4460 hc         1 6TW       0.064700
     48 H15          6.9330     2.1120     0.5080 hc         1 6TW       0.064700
     49 H16          6.5250     1.5340     2.0610 hc         1 6TW       0.064700
     50 H17          1.4310    -1.2480    -1.9950 ha         1 6TW       0.148000
     51 H18         -3.2530     2.7900     0.6520 h5         1 6TW       0.057100
     52 H19          2.7120     3.1590    -1.8500 hn         1 6TW       0.323500
     53 H20          3.7500     1.3500    -1.3810 hn         1 6TW       0.507000
     54 H21          4.8170     0.9160     0.4180 hn         1 6TW       0.153000
     55 H22         -4.4660     0.5420    -0.7290 ho         1 6TW       0.470500
     56 H23         -8.1500     2.2670    -0.6850 ho         1 6TW       0.470500
     57 N22          5.2690     0.0320     0.2230 ns         1 6TW      -0.189000
     58 OP1         -5.0830     1.1420    -1.2180 oh         1 6TW      -0.511600
     59 OP2         -7.6370     1.4380    -0.7880 oh         1 6TW      -0.511600
@<TRIPOS>BOND
     1     1    25 1   
     2     1    26 1   
     3     1    27 2   
     4     2     3 1   
     5     2     7 1   
     6     2    29 1   
     7     2    34 1   
     8     3     4 1   
     9     3    35 1   
    10     3    36 1   
    11     4     5 1   
    12     4     6 1   
    13     4    37 1   
    14     5     7 1   
    15     5     8 1   
    16     5    38 1   
    17     6    39 1   
    18     8    31 1   
    19     8    40 1   
    20     8    41 1   
    21     9    10 ar  
    22     9    15 ar  
    23     9    24 ar  
    24    10    11 ar  
    25    10    42 1   
    26    11    18 ar  
    27    11    57 1   
    28    12    13 ar  
    29    12    24 ar  
    30    12    43 1   
    31    13    14 ar  
    32    13    44 1   
    33    14    15 ar  
    34    14    45 1   
    35    15    46 1   
    36    16    17 1   
    37    16    30 2   
    38    16    57 1   
    39    17    47 1   
    40    17    48 1   
    41    17    49 1   
    42    18    22 ar  
    43    18    26 1   
    44    19    20 2   
    45    19    27 1   
    46    19    29 1   
    47    20    21 1   
    48    20    28 1   
    49    21    25 1   
    50    21    32 2   
    51    22    24 ar  
    52    22    50 1   
    53    23    28 2   
    54    23    29 1   
    55    23    51 1   
    56    25    52 1   
    57    26    53 1   
    58    31    33 1   
    59    33    58 1   
    60    33    59 1   
    61    54    57 1   
    62    55    58 1   
    63    56    59 1   
@<TRIPOS>SUBSTRUCTURE
     1 6TW         1 TEMP              0 ****  ****    0 ROOT
