@<TRIPOS>MOLECULE
6TW
   59    63     1     0     0
SMALL
bcc


@<TRIPOS>ATOM
      1 C2           1.6580     1.5810    -0.2070 cc         1 6TW       0.747800
      2 C1          -1.9910     0.1290     1.4800 c5         1 6TW       0.264800
      3 C13         -2.7340    -0.0140     2.8020 c5         1 6TW      -0.163400
      4 C3          -3.6500    -1.1990     2.5290 c5         1 6TW       0.121100
      5 C4          -4.0130    -0.9750     1.0640 c5         1 6TW       0.105100
      6 O3          -2.9720    -2.4290     2.6190 oh         1 6TW      -0.582800
      7 O4          -2.8790    -0.3320     0.4810 os         1 6TW      -0.435600
      8 C5          -5.2450    -0.1020     0.8950 c3         1 6TW       0.159400
      9 C10          3.6980    -3.2040    -0.4250 ca         1 6TW      -0.043000
     10 C11          4.6910    -2.2070    -0.3230 ca         1 6TW      -0.083000
     11 C12          4.3640    -0.8800    -0.3420 ca         1 6TW       0.011600
     12 C16          1.3430    -3.8010    -0.6340 ca         1 6TW      -0.115000
     13 C17          1.6780    -5.1280    -0.6110 ca         1 6TW      -0.119000
     14 C18          3.0270    -5.5240    -0.4910 ca         1 6TW      -0.125000
     15 C19          4.0150    -4.5820    -0.4000 ca         1 6TW      -0.110000
     16 C23          6.4170     0.2520    -1.0590 c          1 6TW       0.668100
     17 C24          7.3610     1.3690    -0.7030 c3         1 6TW      -0.183100
     18 C14          3.0030    -0.4760    -0.4840 ca         1 6TW       0.147600
     19 C15         -0.3780     1.8180     0.6120 cd         1 6TW       0.135800
     20 C20         -0.4330     3.1850     0.4410 cc         1 6TW       0.160800
     21 C6           0.6950     3.8500    -0.1260 c          1 6TW       0.665000
     22 C7           2.0200    -1.4300    -0.5720 ca         1 6TW      -0.116000
     23 C8          -2.2840     2.6390     1.3010 cd         1 6TW       0.397400
     24 C9           2.3430    -2.8040    -0.5410 ca         1 6TW      -0.021000
     25 N1           1.7070     2.9280    -0.4260 ns         1 6TW      -0.528400
     26 N2           2.7730     0.8980    -0.5590 nu         1 6TW      -0.719600
     27 N3           0.6250     0.9820     0.3100 nd         1 6TW      -0.694100
     28 N7          -1.6350     3.6790     0.8780 nc         1 6TW      -0.589000
     29 N9          -1.5690     1.4720     1.1770 na         1 6TW      -0.212900
     30 O25          6.5830    -0.4610    -2.0300 o          1 6TW      -0.568100
     31 O5          -5.4950     0.1740    -0.4690 os         1 6TW      -0.333900
     32 O6           0.8470     5.0360    -0.3560 o          1 6TW      -0.582500
     33 P           -4.6260     1.3830    -1.1990 p3         1 6TW       0.218300
     34 H1          -1.0860    -0.4810     1.4700 h2         1 6TW       0.109700
     35 H2          -2.0530    -0.1750     3.6370 hc         1 6TW       0.072700
     36 H3          -3.3260     0.8720     3.0370 hc         1 6TW       0.072700
     37 H4          -4.5380    -1.1790     3.1720 h1         1 6TW       0.058700
     38 H5          -4.1720    -1.9270     0.5490 h1         1 6TW       0.109700
     39 H6          -2.6580    -2.5350     3.5220 ho         1 6TW       0.412000
     40 H7          -6.1150    -0.6330     1.2870 h1         1 6TW       0.041700
     41 H8          -5.1470     0.8250     1.4750 h1         1 6TW       0.041700
     42 H9           5.7250    -2.5020    -0.2000 ha         1 6TW       0.148000
     43 H10          0.3060    -3.5010    -0.7250 ha         1 6TW       0.139000
     44 H11          0.9050    -5.8810    -0.6830 ha         1 6TW       0.134000
     45 H12          3.2750    -6.5770    -0.4710 ha         1 6TW       0.134000
     46 H13          5.0520    -4.8810    -0.3070 ha         1 6TW       0.134000
     47 H14          8.3770     0.9800    -0.6540 hc         1 6TW       0.064700
     48 H15          7.3380     2.1220    -1.4910 hc         1 6TW       0.064700
     49 H16          7.1280     1.8540     0.2430 hc         1 6TW       0.064700
     50 H17          0.9860    -1.1400    -0.6810 ha         1 6TW       0.166000
     51 H18         -3.2800     2.6580     1.7150 h5         1 6TW       0.057100
     52 H19          2.5430     3.3260    -0.8350 hn         1 6TW       0.323500
     53 H20          3.5670     1.4460    -0.8570 hn         1 6TW       0.451800
     54 H21          5.2970     0.7340     0.5780 hn         1 6TW       0.319500
     55 H22         -2.9340     0.1450    -1.7790 ho         1 6TW       0.431500
     56 H23         -6.1160     2.6360    -2.1620 ho         1 6TW       0.431500
     57 N22          5.3540     0.1170    -0.2190 ns         1 6TW      -0.515100
     58 OP1         -3.6940     0.5220    -2.2390 oh         1 6TW      -0.472600
     59 OP2         -5.7170     1.7790    -2.3500 oh         1 6TW      -0.472600
@<TRIPOS>BOND
     1     1    25 1   
     2     1    26 1   
     3     1    27 2   
     4     2     3 1   
     5     2     7 1   
     6     2    29 1   
     7     2    34 1   
     8     3     4 1   
     9     3    35 1   
    10     3    36 1   
    11     4     5 1   
    12     4     6 1   
    13     4    37 1   
    14     5     7 1   
    15     5     8 1   
    16     5    38 1   
    17     6    39 1   
    18     8    31 1   
    19     8    40 1   
    20     8    41 1   
    21     9    10 ar  
    22     9    15 ar  
    23     9    24 ar  
    24    10    11 ar  
    25    10    42 1   
    26    11    18 ar  
    27    11    57 1   
    28    12    13 ar  
    29    12    24 ar  
    30    12    43 1   
    31    13    14 ar  
    32    13    44 1   
    33    14    15 ar  
    34    14    45 1   
    35    15    46 1   
    36    16    17 1   
    37    16    30 2   
    38    16    57 1   
    39    17    47 1   
    40    17    48 1   
    41    17    49 1   
    42    18    22 ar  
    43    18    26 1   
    44    19    20 2   
    45    19    27 1   
    46    19    29 1   
    47    20    21 1   
    48    20    28 1   
    49    21    25 1   
    50    21    32 2   
    51    22    24 ar  
    52    22    50 1   
    53    23    28 2   
    54    23    29 1   
    55    23    51 1   
    56    25    52 1   
    57    26    53 1   
    58    31    33 1   
    59    33    58 1   
    60    33    59 1   
    61    54    57 1   
    62    55    58 1   
    63    56    59 1   
@<TRIPOS>SUBSTRUCTURE
     1 6TW         1 TEMP              0 ****  ****    0 ROOT
