@<TRIPOS>MOLECULE
6TX
   40    41     1     0     0
SMALL
No Charge or Current Charge


@<TRIPOS>ATOM
      1 C1           2.2740    -0.7170     1.1380 c3         1 6TX      -0.090400
      2 C2           1.8350    -0.9980    -0.3180 c3         1 6TX       0.221800
      3 C3           3.1520     0.7780    -1.5560 c3         1 6TX       0.221800
      4 C4           3.6770     1.8110    -0.5210 c3         1 6TX       0.067600
      5 C5          -0.9220     0.0740    -1.1880 ca         1 6TX      -0.272500
      6 C6          -1.3260    -0.4420    -2.4420 ca         1 6TX      -0.002000
      7 C7          -2.4060    -1.3270    -2.5510 ca         1 6TX      -0.149000
      8 C8          -3.1060    -1.7240    -1.4080 ca         1 6TX      -0.001000
      9 C9          -2.7150    -1.2420    -0.1480 ca         1 6TX      -0.120000
     10 C10         -1.6240    -0.3470    -0.0150 ca         1 6TX       0.076000
     11 C12         -2.0630    -0.4300     2.3870 ca         1 6TX       0.367900
     12 C13         -3.4180    -1.6670     0.9950 ca         1 6TX       0.380900
     13 O1           0.4980     1.8450    -2.5600 o          1 6TX      -0.527000
     14 S            0.4950     1.2220    -1.2320 sy         1 6TX       1.177600
     15 O            0.5920     2.0320    -0.0160 o          1 6TX      -0.527000
     16 N            1.8390     0.1670    -1.2400 n3         1 6TX      -0.800500
     17 N1           5.0470     2.3830    -0.8690 nz         1 6TX      -0.969000
     18 C            1.9550    -1.8830     2.0960 c3         1 6TX      -0.093100
     19 C11         -1.3080     0.0480     1.3060 ca         1 6TX      -0.173000
     20 N2          -3.1060    -1.2720     2.2470 nb         1 6TX      -0.648000
     21 H1           3.3550    -0.5390     1.1620 hc         1 6TX       0.043200
     22 H2           1.7890     0.1900     1.5150 hc         1 6TX       0.043200
     23 H3           2.5090    -1.7690    -0.7160 h1         1 6TX       0.066700
     24 H4           0.8450    -1.4700    -0.2970 h1         1 6TX       0.066700
     25 H5           3.0980     1.2780    -2.5320 h1         1 6TX       0.070200
     26 H6           3.9060    -0.0130    -1.6610 h1         1 6TX       0.070200
     27 H7           2.9560     2.6310    -0.4500 hx         1 6TX       0.123200
     28 H8           3.7300     1.3340     0.4620 hx         1 6TX       0.123200
     29 H9          -0.8000    -0.1620    -3.3520 ha         1 6TX       0.102000
     30 H10         -2.7000    -1.7070    -3.5270 ha         1 6TX       0.128000
     31 H11         -3.9440    -2.4130    -1.5030 ha         1 6TX       0.133000
     32 H12         -1.8200    -0.1270     3.4050 h4         1 6TX       0.035100
     33 H13         -4.2600    -2.3530     0.9080 h4         1 6TX       0.030100
     34 H14          5.3860     3.0720    -0.1770 hn         1 6TX       0.514333
     35 H15          5.7930     1.6710    -0.9260 hn         1 6TX       0.514333
     36 H17          2.2930    -1.6470     3.1120 hc         1 6TX       0.048367
     37 H18          0.8750    -2.0730     2.1310 hc         1 6TX       0.048367
     38 H19          2.4580    -2.8020     1.7710 hc         1 6TX       0.048367
     39 H20         -0.4900     0.7070     1.5480 ha         1 6TX       0.136000
     40 H16          5.0700     2.8820    -1.7740 hn         1 6TX       0.514333
@<TRIPOS>BOND
     1     1     2 1   
     2     1    18 1   
     3     1    21 1   
     4     1    22 1   
     5     2    16 1   
     6     2    23 1   
     7     2    24 1   
     8     3     4 1   
     9     3    16 1   
    10     3    25 1   
    11     3    26 1   
    12     4    17 1   
    13     4    27 1   
    14     4    28 1   
    15     5     6 ar  
    16     5    10 ar  
    17     5    14 1   
    18     6     7 ar  
    19     6    29 1   
    20     7     8 ar  
    21     7    30 1   
    22     8     9 ar  
    23     8    31 1   
    24     9    10 ar  
    25     9    12 ar  
    26    10    19 ar  
    27    11    19 ar  
    28    11    20 ar  
    29    11    32 1   
    30    12    20 ar  
    31    12    33 1   
    32    13    14 2   
    33    14    15 2   
    34    14    16 1   
    35    17    34 1   
    36    17    35 1   
    37    17    40 1   
    38    18    36 1   
    39    18    37 1   
    40    18    38 1   
    41    19    39 1   
@<TRIPOS>SUBSTRUCTURE
     1 6TX         1 TEMP              0 ****  ****    0 ROOT
