@<TRIPOS>MOLECULE
6TX
   40    41     1     0     0
SMALL
bcc


@<TRIPOS>ATOM
      1 C1           3.5620    -1.2910     1.1660 c3         1 6TX      -0.090400
      2 C2           2.4140    -1.3430     0.1700 c3         1 6TX       0.221800
      3 C3           2.4820     0.7450    -1.2580 c3         1 6TX       0.221800
      4 C4           3.4830     1.7600    -0.7220 c3         1 6TX       0.095800
      5 C5          -0.8460    -0.2060    -0.3080 ca         1 6TX      -0.272500
      6 C6          -0.6250    -0.9870    -1.4100 ca         1 6TX      -0.020000
      7 C7          -1.6990    -1.5770    -2.1050 ca         1 6TX      -0.167000
      8 C8          -2.9790    -1.3700    -1.6800 ca         1 6TX      -0.019000
      9 C9          -3.2310    -0.5610    -0.5520 ca         1 6TX      -0.185300
     10 C10         -2.1670     0.0440     0.1580 ca         1 6TX       0.076000
     11 C12         -3.8370     0.9950     1.5940 ca         1 6TX       0.433200
     12 C13         -4.5530    -0.3300    -0.1020 ca         1 6TX       0.446200
     13 O1           0.4600     1.9610     0.3450 o          1 6TX      -0.597800
     14 S            0.5320     0.5230     0.5540 sy         1 6TX       1.319200
     15 O            0.5100     0.0010     1.9110 o          1 6TX      -0.597800
     16 N            1.8750    -0.0270    -0.1880 n3         1 6TX      -0.800500
     17 N1           4.1430     2.4690    -1.8450 nz         1 6TX      -0.831600
     18 C            4.0500    -2.6890     1.5180 c3         1 6TX      -0.093100
     19 C11         -2.5180     0.8490     1.2660 ca         1 6TX      -0.256300
     20 N2          -4.8550     0.4120     0.9250 nb         1 6TX      -0.648000
     21 H1           4.3900    -0.7120     0.7490 hc         1 6TX       0.043200
     22 H2           3.2320    -0.7690     2.0660 hc         1 6TX       0.043200
     23 H3           2.7330    -1.8250    -0.7570 h1         1 6TX       0.066700
     24 H4           1.6070    -1.9620     0.5670 h1         1 6TX       0.066700
     25 H5           1.7200     1.2500    -1.8550 h1         1 6TX       0.070200
     26 H6           2.9840     0.0410    -1.9230 h1         1 6TX       0.070200
     27 H7           2.9980     2.5120    -0.1070 hx         1 6TX       0.123200
     28 H8           4.2690     1.2810    -0.1440 hx         1 6TX       0.123200
     29 H9           0.3790    -1.1700    -1.7680 ha         1 6TX       0.120000
     30 H10         -1.4940    -2.1910    -2.9710 ha         1 6TX       0.146000
     31 H11         -3.8140    -1.8200    -2.2030 ha         1 6TX       0.151000
     32 H12         -4.1150     1.6110     2.4410 h4         1 6TX       0.035100
     33 H13         -5.3730    -0.7960    -0.6400 h4         1 6TX       0.030100
     34 H14          4.8120     3.1580    -1.5010 hn         1 6TX       0.459133
     35 H15          4.6600     1.8340    -2.4530 hn         1 6TX       0.459133
     36 H17          4.8690    -2.6470     2.2350 hc         1 6TX       0.048367
     37 H18          3.2520    -3.2880     1.9600 hc         1 6TX       0.048367
     38 H19          4.4110    -3.2200     0.6360 hc         1 6TX       0.048367
     39 H20         -1.7800     1.3610     1.8660 ha         1 6TX       0.154000
     40 H16          3.4770     2.9740    -2.4300 hn         1 6TX       0.459133
@<TRIPOS>BOND
     1     1     2 1   
     2     1    18 1   
     3     1    21 1   
     4     1    22 1   
     5     2    16 1   
     6     2    23 1   
     7     2    24 1   
     8     3     4 1   
     9     3    16 1   
    10     3    25 1   
    11     3    26 1   
    12     4    17 1   
    13     4    27 1   
    14     4    28 1   
    15     5     6 ar  
    16     5    10 ar  
    17     5    14 1   
    18     6     7 ar  
    19     6    29 1   
    20     7     8 ar  
    21     7    30 1   
    22     8     9 ar  
    23     8    31 1   
    24     9    10 ar  
    25     9    12 ar  
    26    10    19 ar  
    27    11    19 ar  
    28    11    20 ar  
    29    11    32 1   
    30    12    20 ar  
    31    12    33 1   
    32    13    14 2   
    33    14    15 2   
    34    14    16 1   
    35    17    34 1   
    36    17    35 1   
    37    17    40 1   
    38    18    36 1   
    39    18    37 1   
    40    18    38 1   
    41    19    39 1   
@<TRIPOS>SUBSTRUCTURE
     1 6TX         1 TEMP              0 ****  ****    0 ROOT
