@<TRIPOS>MOLECULE
6TY
   37    39     1     0     0
SMALL
bcc


@<TRIPOS>ATOM
      1 C2          -3.3960     0.0370    -1.4250 c6         1 6TY       0.148800
      2 C5           0.9110     0.8630     0.4680 ca         1 6TY      -0.285500
      3 N           -3.6440    -1.3800    -1.2930 n7         1 6TY      -0.781200
      4 C8           3.2560     1.2370    -1.0100 ca         1 6TY      -0.044000
      5 C9           2.8770    -0.0620    -0.6120 ca         1 6TY      -0.190300
      6 C10          1.7050    -0.2780     0.1570 ca         1 6TY       0.070000
      7 C11          1.4590    -1.6120     0.5520 ca         1 6TY      -0.258300
      8 C12          2.3110    -2.6040     0.1540 ca         1 6TY       0.411200
      9 C13          3.6710    -1.1790    -0.9620 ca         1 6TY       0.437200
     10 C           -1.9830     2.0390    -1.1640 c3         1 6TY      -0.108100
     11 O           -0.4320    -0.1370     2.5050 o          1 6TY      -0.604300
     12 O1          -1.0760     2.0980     1.6250 o          1 6TY      -0.604300
     13 N1          -1.7540     0.0200     0.3760 n3         1 6TY      -0.731500
     14 C4          -1.9050    -1.4400     0.4640 c6         1 6TY       0.157800
     15 C3          -3.3130    -1.8260     0.0430 c6         1 6TY       0.148800
     16 C1          -2.0030     0.5270    -0.9940 c6         1 6TY       0.185500
     17 N2           3.4070    -2.4050    -0.6070 nb         1 6TY      -0.664000
     18 C7           2.4980     2.3130    -0.6480 ca         1 6TY      -0.162000
     19 C6           1.3180     2.1180     0.0920 ca         1 6TY       0.001000
     20 H1          -3.5440     0.3290    -2.4660 h1         1 6TY       0.063700
     21 H2          -4.1390     0.5770    -0.8290 h1         1 6TY       0.063700
     22 H3          -3.0830    -1.8870    -1.9680 hn         1 6TY       0.349800
     23 H5           4.1580     1.3680    -1.5940 ha         1 6TY       0.139000
     24 H6           0.6270    -1.8750     1.1850 ha         1 6TY       0.158000
     25 H7           2.1210    -3.6270     0.4570 h4         1 6TY       0.024100
     26 H8           4.5600    -1.0140    -1.5640 h4         1 6TY       0.020100
     27 H9          -1.0020     2.4860    -1.0360 hc         1 6TY       0.054700
     28 H10         -2.2930     2.2550    -2.1870 hc         1 6TY       0.054700
     29 H11         -2.6830     2.5290    -0.4890 hc         1 6TY       0.054700
     30 H12         -1.1850    -1.9460    -0.1900 h1         1 6TY       0.061700
     31 H13         -1.7320    -1.7720     1.4840 h1         1 6TY       0.061700
     32 H14         -4.0300    -1.3940     0.7480 h1         1 6TY       0.066700
     33 H15         -3.4100    -2.9110     0.1030 h1         1 6TY       0.066700
     34 H16         -1.2520     0.0840    -1.6630 h1         1 6TY       0.036700
     35 H17          2.7870     3.3160    -0.9260 ha         1 6TY       0.144000
     36 H18          0.7310     2.9860     0.3600 ha         1 6TY       0.163000
     37 S           -0.6340     0.7400     1.3600 sy         1 6TY       1.292200
@<TRIPOS>BOND
     1     1     3 1   
     2     1    16 1   
     3     1    20 1   
     4     1    21 1   
     5     2     6 ar  
     6     2    19 ar  
     7     2    37 1   
     8     3    15 1   
     9     3    22 1   
    10     4     5 ar  
    11     4    18 ar  
    12     4    23 1   
    13     5     6 ar  
    14     5     9 ar  
    15     6     7 ar  
    16     7     8 ar  
    17     7    24 1   
    18     8    17 ar  
    19     8    25 1   
    20     9    17 ar  
    21     9    26 1   
    22    10    16 1   
    23    10    27 1   
    24    10    28 1   
    25    10    29 1   
    26    11    37 2   
    27    12    37 2   
    28    13    14 1   
    29    13    16 1   
    30    13    37 1   
    31    14    15 1   
    32    14    30 1   
    33    14    31 1   
    34    15    32 1   
    35    15    33 1   
    36    16    34 1   
    37    18    19 ar  
    38    18    35 1   
    39    19    36 1   
@<TRIPOS>SUBSTRUCTURE
     1 6TY         1 TEMP              0 ****  ****    0 ROOT
