@<TRIPOS>MOLECULE
6TY
   37    39     1     0     0
SMALL
No Charge or Current Charge


@<TRIPOS>ATOM
      1 C2          -2.9600    -0.3840    -1.6600 c6         1 6TY       0.148800
      2 C5           0.9000     0.9480     0.5830 ca         1 6TY      -0.285500
      3 N           -3.3910    -1.7250    -1.1860 n7         1 6TY      -0.836400
      4 C8           3.2110     1.4970    -0.9660 ca         1 6TY      -0.026000
      5 C9           2.7660     0.1740    -0.8100 ca         1 6TY      -0.125000
      6 C10          1.6220    -0.1180    -0.0300 ca         1 6TY       0.070000
      7 C11          1.2730    -1.4790     0.0880 ca         1 6TY      -0.175000
      8 C12          2.0360    -2.4600    -0.5630 ca         1 6TY       0.345900
      9 C13          3.4710    -0.8760    -1.4300 ca         1 6TY       0.371900
     10 C           -1.5710     1.6780    -1.3950 c3         1 6TY      -0.108100
     11 O           -0.2590    -0.3310     2.5780 o          1 6TY      -0.533500
     12 O1          -1.0730     2.0320     2.0770 o          1 6TY      -0.533500
     13 N1          -1.8230     0.0860     0.5940 n3         1 6TY      -0.731500
     14 C4          -2.3930    -1.2240     1.0590 c6         1 6TY       0.157800
     15 C3          -3.6530    -1.6800     0.2730 c6         1 6TY       0.148800
     16 C1          -1.7090     0.2050    -0.9060 c6         1 6TY       0.185500
     17 N2           3.1190    -2.1750    -1.3160 nb         1 6TY      -0.664000
     18 C7           2.5260     2.5400    -0.3330 ca         1 6TY      -0.144000
     19 C6           1.3880     2.2690     0.4410 ca         1 6TY       0.019000
     20 H1          -2.7410    -0.4330    -2.7380 h1         1 6TY       0.063700
     21 H2          -3.8020     0.3140    -1.5400 h1         1 6TY       0.063700
     22 H3          -2.6250    -2.3890    -1.3560 hn         1 6TY       0.405000
     23 H5           4.0930     1.7160    -1.5660 ha         1 6TY       0.121000
     24 H6           0.4320    -1.8100     0.6770 ha         1 6TY       0.140000
     25 H7           1.7710    -3.5130    -0.4760 h4         1 6TY       0.024100
     26 H8           4.3520    -0.6720    -2.0370 h4         1 6TY       0.020100
     27 H9          -0.6110     2.1310    -1.1510 hc         1 6TY       0.054700
     28 H10         -1.6620     1.7380    -2.4860 hc         1 6TY       0.054700
     29 H11         -2.3580     2.3100    -0.9660 hc         1 6TY       0.054700
     30 H12         -1.6480    -2.0250     0.9810 h1         1 6TY       0.061700
     31 H13         -2.6750    -1.1600     2.1200 h1         1 6TY       0.061700
     32 H14         -4.4790    -0.9820     0.4810 h1         1 6TY       0.066700
     33 H15         -3.9650    -2.6730     0.6290 h1         1 6TY       0.066700
     34 H16         -0.8290    -0.3530    -1.2550 h1         1 6TY       0.036700
     35 H17          2.8760     3.5640    -0.4410 ha         1 6TY       0.126000
     36 H18          0.8800     3.1060     0.9180 ha         1 6TY       0.145000
     37 S           -0.5850     0.7280     1.6140 sy         1 6TY       1.150600
@<TRIPOS>BOND
     1     1     3 1   
     2     1    16 1   
     3     1    20 1   
     4     1    21 1   
     5     2     6 ar  
     6     2    19 ar  
     7     2    37 1   
     8     3    15 1   
     9     3    22 1   
    10     4     5 ar  
    11     4    18 ar  
    12     4    23 1   
    13     5     6 ar  
    14     5     9 ar  
    15     6     7 ar  
    16     7     8 ar  
    17     7    24 1   
    18     8    17 ar  
    19     8    25 1   
    20     9    17 ar  
    21     9    26 1   
    22    10    16 1   
    23    10    27 1   
    24    10    28 1   
    25    10    29 1   
    26    11    37 2   
    27    12    37 2   
    28    13    14 1   
    29    13    16 1   
    30    13    37 1   
    31    14    15 1   
    32    14    30 1   
    33    14    31 1   
    34    15    32 1   
    35    15    33 1   
    36    16    34 1   
    37    18    19 ar  
    38    18    35 1   
    39    19    36 1   
@<TRIPOS>SUBSTRUCTURE
     1 6TY         1 TEMP              0 ****  ****    0 ROOT
