@<TRIPOS>MOLECULE
6TZ
   19    20     1     0     0
SMALL
abcg2


@<TRIPOS>ATOM
      1 C1           1.8750    -1.8700     0.0360 ca         1 6TZ      -0.090000
      2 C2           0.5180    -1.5880     0.0360 ca         1 6TZ      -0.103000
      3 C3           0.0690    -0.2660     0.0210 ca         1 6TZ      -0.084500
      4 C4           1.0080     0.7650     0.0060 ca         1 6TZ      -0.142000
      5 C5           2.3530     0.4520     0.0070 ca         1 6TZ       0.165000
      6 C6           2.8160    -0.8480     0.0210 ca         1 6TZ      -0.149000
      7 F7           3.2440     1.4580    -0.0090 f          1 6TZ      -0.182000
      8 C8          -1.3630     0.0440     0.0190 cc         1 6TZ       0.298500
      9 C9          -1.9900     1.3080     0.0510 cc         1 6TZ      -0.210000
     10 C10         -3.3340     1.0290     0.0340 cd         1 6TZ      -0.176000
     11 N11         -3.4390    -0.3090    -0.0050 na         1 6TZ       0.004800
     12 N12         -2.2690    -0.9240    -0.0150 nd         1 6TZ      -0.517800
     13 H1           2.2080    -2.8990     0.0480 ha         1 6TZ       0.117000
     14 H2          -0.1970    -2.3980     0.0490 ha         1 6TZ       0.133000
     15 H4           0.7050     1.8040    -0.0070 ha         1 6TZ       0.131000
     16 H6           3.8770    -1.0570     0.0210 ha         1 6TZ       0.131000
     17 H9          -1.5350     2.2850     0.0840 ha         1 6TZ       0.147000
     18 H10         -4.1990     1.6690     0.0450 h4         1 6TZ       0.155000
     19 HN11        -4.2880    -0.8510    -0.0310 hn         1 6TZ       0.373000
@<TRIPOS>BOND
     1     1     2 ar  
     2     1     6 ar  
     3     1    13 1   
     4     2     3 ar  
     5     2    14 1   
     6     3     4 ar  
     7     3     8 1   
     8     4     5 ar  
     9     4    15 1   
    10     5     6 ar  
    11     5     7 1   
    12     6    16 1   
    13     8     9 1   
    14     8    12 2   
    15     9    10 2   
    16     9    17 1   
    17    10    11 1   
    18    10    18 1   
    19    11    12 1   
    20    11    19 1   
@<TRIPOS>SUBSTRUCTURE
     1 6TZ         1 TEMP              0 ****  ****    0 ROOT
