@<TRIPOS>MOLECULE
6TZ
   19    20     1     0     0
SMALL
No Charge or Current Charge


@<TRIPOS>ATOM
      1 C1           1.9190    -1.8860     0.0220 ca         1 6TZ      -0.090000
      2 C2           0.5380    -1.6180     0.0220 ca         1 6TZ      -0.103000
      3 C3           0.0520    -0.2880     0.0220 ca         1 6TZ      -0.084500
      4 C4           0.9960     0.7670     0.0220 ca         1 6TZ      -0.142000
      5 C5           2.3740     0.4950     0.0230 ca         1 6TZ       0.165000
      6 C6           2.8400    -0.8270     0.0230 ca         1 6TZ      -0.149000
      7 F7           3.2580     1.5160     0.0240 f          1 6TZ      -0.182000
      8 C8          -1.4010    -0.0210     0.0210 cc         1 6TZ       0.298500
      9 C9          -1.9970     1.2560     0.0210 cc         1 6TZ      -0.210000
     10 C10         -3.3470     1.0860     0.0200 cd         1 6TZ      -0.176000
     11 N11         -3.5210    -0.3010     0.0200 na         1 6TZ       0.004800
     12 N12         -2.3050    -0.9870     0.0200 nd         1 6TZ      -0.517800
     13 H1           2.2730    -2.9150     0.0220 ha         1 6TZ       0.117000
     14 H2          -0.1540    -2.4580     0.0210 ha         1 6TZ       0.133000
     15 H4           0.6800     1.8050     0.0220 ha         1 6TZ       0.131000
     16 H6           3.9080    -1.0270     0.0230 ha         1 6TZ       0.131000
     17 H9          -1.4730     2.2040     0.0210 ha         1 6TZ       0.147000
     18 H10         -4.1670     1.7980     0.0200 h4         1 6TZ       0.155000
     19 HN11        -4.4120    -0.7970     0.0200 hn         1 6TZ       0.373000
@<TRIPOS>BOND
     1     1     2 ar  
     2     1     6 ar  
     3     1    13 1   
     4     2     3 ar  
     5     2    14 1   
     6     3     4 ar  
     7     3     8 1   
     8     4     5 ar  
     9     4    15 1   
    10     5     6 ar  
    11     5     7 1   
    12     6    16 1   
    13     8     9 1   
    14     8    12 2   
    15     9    10 2   
    16     9    17 1   
    17    10    11 1   
    18    10    18 1   
    19    11    12 1   
    20    11    19 1   
@<TRIPOS>SUBSTRUCTURE
     1 6TZ         1 TEMP              0 ****  ****    0 ROOT
