@<TRIPOS>MOLECULE
6U1
   46    49     1     0     0
SMALL
No Charge or Current Charge


@<TRIPOS>ATOM
      1 C1          -6.3460     2.1660    -1.4410 c3         1 6U1      -0.384100
      2 C6          -3.8670     0.4270    -0.0550 ca         1 6U1       0.235000
      3 C8          -4.7710    -0.9270     1.7680 ca         1 6U1      -0.097000
      4 C9          -3.6830    -0.5730     2.5800 ca         1 6U1      -0.090000
      5 C11         -2.7770     0.7690     0.7660 ca         1 6U1      -0.119000
      6 C18          3.7210    -1.0430     0.6850 cc         1 6U1       0.419800
      7 C21          4.8380    -0.7070    -0.1670 cc         1 6U1      -0.181000
      8 C25          6.3050     0.3230    -1.5880 ca         1 6U1       0.361500
      9 C26          5.0990     0.4860    -0.9370 ca         1 6U1      -0.108800
     10 C28          4.8980     2.6510    -1.9240 ca         1 6U1      -0.203000
     11 S2          -5.1940     1.1790    -2.3730 s6         1 6U1       1.189100
     12 O3          -5.7710    -0.1420    -2.6270 o          1 6U1      -0.524000
     13 O4          -4.6630     1.9850    -3.4730 o          1 6U1      -0.524000
     14 N5          -3.9040     0.9490    -1.3510 nu         1 6U1      -0.873100
     15 C7          -4.8640    -0.4320     0.4550 ca         1 6U1      -0.069000
     16 C10         -2.6780     0.2770     2.0830 ca         1 6U1      -0.064300
     17 C13         -0.3750    -0.3910     2.8430 c          1 6U1       0.601100
     18 O14         -0.4330    -1.4610     3.4280 o          1 6U1      -0.554100
     19 N15          0.6670    -0.0300     2.0250 ns         1 6U1      -0.476400
     20 C16          1.7920    -0.7350     1.7020 cd         1 6U1       0.533300
     21 N17          2.6710    -0.1870     0.8860 nc         1 6U1      -0.710000
     22 C19          3.6630    -2.2490     1.3380 cd         1 6U1      -0.323000
     23 S20          2.1950    -2.3570     2.2870 ss         1 6U1       0.066600
     24 C22          5.9180    -1.5540    -0.3910 cd         1 6U1      -0.131100
     25 N23          6.8250    -0.9150    -1.2710 na         1 6U1      -0.320400
     26 C27          4.3510     1.6640    -1.0850 ca         1 6U1      -0.011000
     27 C29          6.1360     2.4110    -2.5540 ca         1 6U1       0.357900
     28 N30          6.8390     1.2620    -2.3940 nb         1 6U1      -0.685000
     29 H1          -7.2040     2.3680    -2.0900 h1         1 6U1       0.102367
     30 H2          -6.6450     1.5920    -0.5590 h1         1 6U1       0.102367
     31 H3          -5.8360     3.0920    -1.1580 h1         1 6U1       0.102367
     32 H4          -5.5430    -1.5890     2.1530 ha         1 6U1       0.125000
     33 H5          -3.6180    -0.9640     3.5930 ha         1 6U1       0.118000
     34 H6          -2.0010     1.4230     0.3780 ha         1 6U1       0.111000
     35 H7          -1.1130     1.6380     2.6540 hc         1 6U1       0.073200
     36 H8          -1.8100     0.7060     4.0080 hc         1 6U1       0.073200
     37 H9           4.3770     3.5900    -2.0880 ha         1 6U1       0.120000
     38 H10         -3.2180     1.6460    -1.6080 hn         1 6U1       0.491000
     39 H11         -5.7100    -0.7300    -0.1540 ha         1 6U1       0.147000
     40 H12          0.5800     0.8820     1.6040 hn         1 6U1       0.338500
     41 H13          4.3700    -3.0660     1.3250 h4         1 6U1       0.157000
     42 H14          6.1130    -2.5510     0.0010 h4         1 6U1       0.216000
     43 H24          7.7030    -1.2830    -1.6160 hn         1 6U1       0.363000
     44 H15          3.3990     1.8170    -0.5840 ha         1 6U1       0.135000
     45 H16          6.5780     3.1620    -3.2080 h4         1 6U1       0.017100
     46 C12         -1.4890     0.6550     2.9610 c3         1 6U1      -0.106100
@<TRIPOS>BOND
     1     1    11 1   
     2     1    29 1   
     3     1    30 1   
     4     1    31 1   
     5     2     5 ar  
     6     2    14 1   
     7     2    15 ar  
     8     3     4 ar  
     9     3    15 ar  
    10     3    32 1   
    11     4    16 ar  
    12     4    33 1   
    13     5    16 ar  
    14     5    34 1   
    15     6     7 1   
    16     6    21 1   
    17     6    22 2   
    18     7     9 1   
    19     7    24 2   
    20     8     9 ar  
    21     8    25 1   
    22     8    28 ar  
    23     9    26 ar  
    24    10    26 ar  
    25    10    27 ar  
    26    10    37 1   
    27    11    12 2   
    28    11    13 2   
    29    11    14 1   
    30    14    38 1   
    31    15    39 1   
    32    16    46 1   
    33    17    18 2   
    34    17    19 1   
    35    17    46 1   
    36    19    20 1   
    37    19    40 1   
    38    20    21 2   
    39    20    23 1   
    40    22    23 1   
    41    22    41 1   
    42    24    25 1   
    43    24    42 1   
    44    25    43 1   
    45    26    44 1   
    46    27    28 ar  
    47    27    45 1   
    48    35    46 1   
    49    36    46 1   
@<TRIPOS>SUBSTRUCTURE
     1 6U1         1 TEMP              0 ****  ****    0 ROOT
