@<TRIPOS>MOLECULE
6U1
   46    49     1     0     0
SMALL
abcg2


@<TRIPOS>ATOM
      1 C1          -6.4160     1.9440    -1.5980 c3         1 6U1      -0.384100
      2 C6          -5.0240    -0.1980     0.4610 ca         1 6U1       0.235000
      3 C8          -4.6330     0.0060     2.8160 ca         1 6U1      -0.097000
      4 C9          -3.3510     0.4760     2.5670 ca         1 6U1      -0.090000
      5 C11         -3.7430     0.2810     0.2130 ca         1 6U1      -0.119000
      6 C18          3.8620    -1.0860    -0.1900 cc         1 6U1       0.419800
      7 C21          5.2620    -0.7750    -0.4220 cc         1 6U1      -0.181000
      8 C25          7.2680     0.3060    -0.6200 ca         1 6U1       0.361500
      9 C26          5.9030     0.5040    -0.3030 ca         1 6U1      -0.108800
     10 C28          6.5050     2.7790     0.0260 ca         1 6U1      -0.203000
     11 S2          -7.1360     0.4150    -1.0480 s6         1 6U1       1.189100
     12 O3          -7.9040     0.6810     0.1550 o          1 6U1      -0.524000
     13 O4          -7.7720    -0.2370    -2.1800 o          1 6U1      -0.524000
     14 N5          -5.8660    -0.5710    -0.6190 nu         1 6U1      -0.873100
     15 C7          -5.4720    -0.3440     1.7700 ca         1 6U1      -0.069000
     16 C10         -2.8940     0.6120     1.2620 ca         1 6U1      -0.064300
     17 C13         -0.5420    -0.0410     0.7210 c          1 6U1       0.601100
     18 O14         -0.8610    -1.2100     0.6610 o          1 6U1      -0.554100
     19 N15          0.7510     0.3510     0.5460 ns         1 6U1      -0.476400
     20 C16          1.7910    -0.5000     0.2620 cd         1 6U1       0.533300
     21 N17          2.9930    -0.0600     0.0850 nc         1 6U1      -0.710000
     22 C19          3.2860    -2.3200    -0.2130 cd         1 6U1      -0.323000
     23 S20          1.5990    -2.2100     0.1130 ss         1 6U1       0.066600
     24 C22          6.2440    -1.6560    -0.7980 cd         1 6U1      -0.131100
     25 N23          7.4370    -1.0120    -0.9150 na         1 6U1      -0.320400
     26 C27          5.5240     1.8030     0.0320 ca         1 6U1      -0.011000
     27 C29          7.8220     2.4470    -0.3080 ca         1 6U1       0.357900
     28 N30          8.2190     1.2250    -0.6310 nb         1 6U1      -0.685000
     29 H1          -7.2290     2.6020    -1.9020 h1         1 6U1       0.102367
     30 H2          -5.8620     2.4010    -0.7810 h1         1 6U1       0.102367
     31 H3          -5.7580     1.7500    -2.4420 h1         1 6U1       0.102367
     32 H4          -4.9780    -0.1030     3.8360 ha         1 6U1       0.125000
     33 H5          -2.7030     0.7350     3.3960 ha         1 6U1       0.118000
     34 H6          -3.4060     0.4000    -0.8110 ha         1 6U1       0.111000
     35 H7          -1.4950     1.7520     0.1010 hc         1 6U1       0.073200
     36 H8          -1.1250     1.6980     1.8080 hc         1 6U1       0.073200
     37 H9           6.2640     3.8030     0.2760 ha         1 6U1       0.120000
     38 H10         -5.3770    -0.9240    -1.4350 hn         1 6U1       0.491000
     39 H11         -6.4590    -0.7380     1.9680 ha         1 6U1       0.147000
     40 H12          0.9910     1.3310     0.5950 hn         1 6U1       0.338500
     41 H13          3.7490    -3.2760    -0.3980 h4         1 6U1       0.157000
     42 H14          6.1770    -2.7140    -0.9970 h4         1 6U1       0.216000
     43 H24          8.3070    -1.4440    -1.1820 hn         1 6U1       0.363000
     44 H15          4.5000     2.0400     0.2850 ha         1 6U1       0.135000
     45 H16          8.5860     3.2170    -0.3100 h4         1 6U1       0.017100
     46 C12         -1.5050     1.0970     0.9780 c3         1 6U1      -0.106100
@<TRIPOS>BOND
     1     1    11 1   
     2     1    29 1   
     3     1    30 1   
     4     1    31 1   
     5     2     5 ar  
     6     2    14 1   
     7     2    15 ar  
     8     3     4 ar  
     9     3    15 ar  
    10     3    32 1   
    11     4    16 ar  
    12     4    33 1   
    13     5    16 ar  
    14     5    34 1   
    15     6     7 1   
    16     6    21 1   
    17     6    22 2   
    18     7     9 1   
    19     7    24 2   
    20     8     9 ar  
    21     8    25 1   
    22     8    28 ar  
    23     9    26 ar  
    24    10    26 ar  
    25    10    27 ar  
    26    10    37 1   
    27    11    12 2   
    28    11    13 2   
    29    11    14 1   
    30    14    38 1   
    31    15    39 1   
    32    16    46 1   
    33    17    18 2   
    34    17    19 1   
    35    17    46 1   
    36    19    20 1   
    37    19    40 1   
    38    20    21 2   
    39    20    23 1   
    40    22    23 1   
    41    22    41 1   
    42    24    25 1   
    43    24    42 1   
    44    25    43 1   
    45    26    44 1   
    46    27    28 ar  
    47    27    45 1   
    48    35    46 1   
    49    36    46 1   
@<TRIPOS>SUBSTRUCTURE
     1 6U1         1 TEMP              0 ****  ****    0 ROOT
