@<TRIPOS>MOLECULE
6U2
   65    69     1     0     0
SMALL
No Charge or Current Charge


@<TRIPOS>ATOM
      1 C1         -12.4860     1.8790    -0.6290 c3         1 6U2       0.154100
      2 C3         -10.7210     0.4280    -1.5820 c6         1 6U2       0.163300
      3 C4          -9.4990    -0.4940    -1.2670 c6         1 6U2       0.163300
      4 C6          -9.0290     0.8150     0.7480 c6         1 6U2       0.163300
      5 C7         -10.2550     1.7330     0.4350 c6         1 6U2       0.163300
      6 C8          -7.2620    -0.6630    -0.2300 c3         1 6U2       0.169800
      7 C9          -6.0390     0.0580     0.3750 c3         1 6U2      -0.083400
      8 C10         -4.8070    -0.8580     0.4700 c3         1 6U2       0.163600
      9 C12         -2.4860    -0.6300     1.2710 ca         1 6U2       0.149100
     10 C13         -2.1640    -1.9660     0.9480 ca         1 6U2      -0.192000
     11 N2         -11.3130     1.0240    -0.3460 n3         1 6U2      -0.718600
     12 N5          -8.4330     0.2100    -0.4880 n3         1 6U2      -0.715600
     13 O11         -3.7370    -0.0930     1.0490 os         1 6U2      -0.346100
     14 C14         -0.8700    -2.4550     1.1970 ca         1 6U2      -0.070000
     15 C15          0.1030    -1.6180     1.7670 ca         1 6U2      -0.132000
     16 C16         -0.2090    -0.2850     2.0930 ca         1 6U2      -0.041300
     17 C17         -1.5060     0.2010     1.8410 ca         1 6U2      -0.126000
     18 C18          0.8480     0.6260     2.7070 c3         1 6U2      -0.105100
     19 C19          1.6080     1.3810     1.6120 c          1 6U2       0.602100
     20 O20          1.1340     2.3570     1.0520 o          1 6U2      -0.553100
     21 N21          2.8420     0.8630     1.3060 ns         1 6U2      -0.477400
     22 C22          3.7420     1.2880     0.3660 cc         1 6U2       0.537300
     23 N23          4.8650     0.6060     0.2660 nd         1 6U2      -0.712000
     24 C24          5.6580     1.1610    -0.7240 cd         1 6U2       0.417800
     25 C25          5.1300     2.2590    -1.3670 cc         1 6U2      -0.325000
     26 S26          3.5610     2.6480    -0.7270 ss         1 6U2       0.065600
     27 C27          6.9610     0.6510    -1.0900 cd         1 6U2      -0.179000
     28 C28          7.7140     1.2500    -2.0940 cc         1 6U2      -0.134100
     29 N29          8.8940     0.4760    -2.1480 na         1 6U2      -0.321400
     30 C31          8.8790    -0.5530    -1.2270 ca         1 6U2       0.360500
     31 C32          7.6860    -0.4800    -0.5430 ca         1 6U2      -0.108800
     32 C33          7.3670    -1.3960     0.4690 ca         1 6U2      -0.010000
     33 C34          8.3350    -2.3820     0.7350 ca         1 6U2      -0.204000
     34 C35          9.5350    -2.3940    -0.0080 ca         1 6U2       0.356900
     35 N36          9.8150    -1.4910    -0.9830 nb         1 6U2      -0.686000
     36 H1         -13.2610     1.3100    -1.1590 h1         1 6U2       0.030367
     37 H2         -12.9230     2.2580     0.3050 h1         1 6U2       0.030367
     38 H3         -12.2040     2.7390    -1.2510 h1         1 6U2       0.030367
     39 H4         -10.3910     1.2240    -2.2650 h1         1 6U2       0.038200
     40 H5         -11.4770    -0.1640    -2.1190 h1         1 6U2       0.038200
     41 H6          -9.8590    -1.3700    -0.7060 h1         1 6U2       0.037950
     42 H7          -9.0910    -0.8680    -2.2170 h1         1 6U2       0.037950
     43 H8          -8.2840     1.4210     1.2830 h1         1 6U2       0.037950
     44 H9          -9.3530     0.0210     1.4380 h1         1 6U2       0.037950
     45 H10        -10.6670     2.1030     1.3850 h1         1 6U2       0.038200
     46 H11         -9.8980     2.6110    -0.1240 h1         1 6U2       0.038200
     47 H12         -6.9420    -1.1160    -1.1790 h1         1 6U2       0.029200
     48 H13         -7.5500    -1.4890     0.4360 h1         1 6U2       0.029200
     49 H14         -5.7930     0.9290    -0.2440 hc         1 6U2       0.063700
     50 H15         -6.2810     0.4240     1.3790 hc         1 6U2       0.063700
     51 H16         -5.0450    -1.7280     1.0980 h1         1 6U2       0.033700
     52 H17         -4.5340    -1.2110    -0.5330 h1         1 6U2       0.033700
     53 H18         -2.8980    -2.6340     0.5060 ha         1 6U2       0.117000
     54 H21         -0.6210    -3.4850     0.9470 ha         1 6U2       0.113000
     55 H22          1.1010    -2.0100     1.9540 ha         1 6U2       0.114000
     56 H23         -1.7600     1.2290     2.0840 ha         1 6U2       0.127000
     57 H24          0.3650     1.3580     3.3640 hc         1 6U2       0.072200
     58 H25          1.5460     0.0190     3.2960 hc         1 6U2       0.072200
     59 H26          3.1170     0.0530     1.8390 hn         1 6U2       0.337500
     60 H27          5.5420     2.8630    -2.1610 h4         1 6U2       0.156000
     61 H28          7.5330     2.1060    -2.7390 h4         1 6U2       0.216000
     62 H30          9.6710     0.6360    -2.7780 hn         1 6U2       0.362000
     63 H29          6.4320    -1.3560     1.0200 ha         1 6U2       0.136000
     64 H31          8.1660    -3.1300     1.5050 ha         1 6U2       0.119000
     65 H32         10.2970    -3.1490     0.1840 h4         1 6U2       0.016100
@<TRIPOS>BOND
     1     1    11 1   
     2     1    36 1   
     3     1    37 1   
     4     1    38 1   
     5     2     3 1   
     6     2    11 1   
     7     2    39 1   
     8     2    40 1   
     9     3    12 1   
    10     3    41 1   
    11     3    42 1   
    12     4     5 1   
    13     4    12 1   
    14     4    43 1   
    15     4    44 1   
    16     5    11 1   
    17     5    45 1   
    18     5    46 1   
    19     6     7 1   
    20     6    12 1   
    21     6    47 1   
    22     6    48 1   
    23     7     8 1   
    24     7    49 1   
    25     7    50 1   
    26     8    13 1   
    27     8    51 1   
    28     8    52 1   
    29     9    10 ar  
    30     9    13 1   
    31     9    17 ar  
    32    10    14 ar  
    33    10    53 1   
    34    14    15 ar  
    35    14    54 1   
    36    15    16 ar  
    37    15    55 1   
    38    16    17 ar  
    39    16    18 1   
    40    17    56 1   
    41    18    19 1   
    42    18    57 1   
    43    18    58 1   
    44    19    20 2   
    45    19    21 1   
    46    21    22 1   
    47    21    59 1   
    48    22    23 2   
    49    22    26 1   
    50    23    24 1   
    51    24    25 2   
    52    24    27 1   
    53    25    26 1   
    54    25    60 1   
    55    27    28 2   
    56    27    31 1   
    57    28    29 1   
    58    28    61 1   
    59    29    30 1   
    60    29    62 1   
    61    30    31 ar  
    62    30    35 ar  
    63    31    32 ar  
    64    32    33 ar  
    65    32    63 1   
    66    33    34 ar  
    67    33    64 1   
    68    34    35 ar  
    69    34    65 1   
@<TRIPOS>SUBSTRUCTURE
     1 6U2         1 TEMP              0 ****  ****    0 ROOT
