@<TRIPOS>MOLECULE
6U2
   65    69     1     0     0
SMALL
bcc


@<TRIPOS>ATOM
      1 C1         -11.8710     3.0630     0.6760 c3         1 6U2       0.154100
      2 C3         -10.6470     1.6060    -0.7790 c6         1 6U2       0.163300
      3 C4          -9.6970     0.4250    -0.8300 c6         1 6U2       0.163300
      4 C6          -8.7330     1.1050     1.2300 c6         1 6U2       0.163300
      5 C7          -9.6880     2.2830     1.2820 c6         1 6U2       0.163300
      6 C8          -7.5300    -0.3850    -0.2460 c3         1 6U2       0.169800
      7 C9          -6.1100    -0.0430     0.1870 c3         1 6U2      -0.083400
      8 C10         -5.1870    -1.2070    -0.1140 c3         1 6U2       0.140400
      9 C12         -2.8920    -1.7710     0.1480 ca         1 6U2       0.149100
     10 C13         -3.0580    -3.0090    -0.4690 ca         1 6U2      -0.210000
     11 N2         -10.9240     1.9760     0.5930 n3         1 6U2      -0.718600
     12 N5          -8.4550     0.7270    -0.1430 n3         1 6U2      -0.715600
     13 O11         -3.8810    -0.8740     0.3270 os         1 6U2      -0.322900
     14 C14         -1.9620    -3.8550    -0.6000 ca         1 6U2      -0.088000
     15 C15         -0.7140    -3.4890    -0.1280 ca         1 6U2      -0.150000
     16 C16         -0.5470    -2.2520     0.4930 ca         1 6U2      -0.041300
     17 C17         -1.6330    -1.4020     0.6270 ca         1 6U2      -0.144000
     18 C18          0.8020    -1.8370     0.9960 c3         1 6U2      -0.105100
     19 C19          1.6080    -1.1050    -0.0530 c          1 6U2       0.669100
     20 O20          1.1890    -0.7890    -1.1480 o          1 6U2      -0.553100
     21 N21          2.8800    -0.8030     0.3320 ns         1 6U2      -0.544400
     22 C22          3.7900    -0.1300    -0.4440 cc         1 6U2       0.537300
     23 N23          4.9830     0.1260    -0.0170 nd         1 6U2      -0.712000
     24 C24          5.7100     0.8100    -0.9590 cd         1 6U2       0.483100
     25 C25          5.0390     1.0610    -2.1170 cc         1 6U2      -0.263400
     26 S26          3.4360     0.4370    -2.0370 ss         1 6U2      -0.079300
     27 C27          7.0780     1.1900    -0.6510 cd         1 6U2      -0.179000
     28 C28          7.8680     2.0540    -1.3660 cc         1 6U2      -0.084100
     29 N29          9.0950     2.1590    -0.7880 na         1 6U2      -0.271100
     30 C31          9.1400     1.3710     0.3210 ca         1 6U2       0.425800
     31 C32          7.8810     0.7390     0.4500 ca         1 6U2      -0.174100
     32 C33          7.7240    -0.1240     1.5340 ca         1 6U2      -0.028000
     33 C34          8.8030    -0.2840     2.3850 ca         1 6U2      -0.287300
     34 C35          9.9960     0.4050     2.1440 ca         1 6U2       0.422200
     35 N36         10.1810     1.2310     1.1250 nb         1 6U2      -0.686000
     36 H1         -12.8050     2.7830     0.1880 h1         1 6U2       0.030367
     37 H2         -12.0950     3.2870     1.7200 h1         1 6U2       0.030367
     38 H3         -11.5120     3.9910     0.2050 h1         1 6U2       0.030367
     39 H4         -10.2130     2.4470    -1.3490 h1         1 6U2       0.038200
     40 H5         -11.5820     1.3310    -1.2740 h1         1 6U2       0.038200
     41 H6         -10.1970    -0.4580    -0.3960 h1         1 6U2       0.037950
     42 H7          -9.4790     0.1890    -1.8750 h1         1 6U2       0.037950
     43 H8          -7.8060     1.3920     1.7300 h1         1 6U2       0.037950
     44 H9          -9.1610     0.2620     1.8010 h1         1 6U2       0.037950
     45 H10         -9.9060     2.5170     2.3270 h1         1 6U2       0.038200
     46 H11         -9.1900     3.1690     0.8490 h1         1 6U2       0.038200
     47 H12         -7.5060    -0.6940    -1.2960 h1         1 6U2       0.029200
     48 H13         -7.8870    -1.2620     0.3230 h1         1 6U2       0.029200
     49 H14         -5.7740     0.8480    -0.3500 hc         1 6U2       0.063700
     50 H15         -6.0680     0.1810     1.2560 hc         1 6U2       0.063700
     51 H16         -5.5390    -2.1130     0.3950 h1         1 6U2       0.033700
     52 H17         -5.1850    -1.4150    -1.1900 h1         1 6U2       0.033700
     53 H18         -4.0190    -3.3310    -0.8450 ha         1 6U2       0.135000
     54 H21         -2.0980    -4.8160    -1.0790 ha         1 6U2       0.131000
     55 H22          0.1280    -4.1610    -0.2340 ha         1 6U2       0.132000
     56 H23         -1.5160    -0.4390     1.1110 ha         1 6U2       0.145000
     57 H24          0.7130    -1.1830     1.8690 hc         1 6U2       0.072200
     58 H25          1.3740    -2.7070     1.3290 hc         1 6U2       0.072200
     59 H26          3.2070    -1.0810     1.2470 hn         1 6U2       0.337500
     60 H27          5.3940     1.5620    -3.0040 h4         1 6U2       0.174000
     61 H28          7.6360     2.6140    -2.2580 h4         1 6U2       0.166000
     62 H30          9.8460     2.7420    -1.1210 hn         1 6U2       0.311700
     63 H29          6.7930    -0.6450     1.7050 ha         1 6U2       0.154000
     64 H31          8.7360    -0.9410     3.2420 ha         1 6U2       0.137000
     65 H32         10.8370     0.2730     2.8150 h4         1 6U2       0.016100
@<TRIPOS>BOND
     1     1    11 1   
     2     1    36 1   
     3     1    37 1   
     4     1    38 1   
     5     2     3 1   
     6     2    11 1   
     7     2    39 1   
     8     2    40 1   
     9     3    12 1   
    10     3    41 1   
    11     3    42 1   
    12     4     5 1   
    13     4    12 1   
    14     4    43 1   
    15     4    44 1   
    16     5    11 1   
    17     5    45 1   
    18     5    46 1   
    19     6     7 1   
    20     6    12 1   
    21     6    47 1   
    22     6    48 1   
    23     7     8 1   
    24     7    49 1   
    25     7    50 1   
    26     8    13 1   
    27     8    51 1   
    28     8    52 1   
    29     9    10 ar  
    30     9    13 1   
    31     9    17 ar  
    32    10    14 ar  
    33    10    53 1   
    34    14    15 ar  
    35    14    54 1   
    36    15    16 ar  
    37    15    55 1   
    38    16    17 ar  
    39    16    18 1   
    40    17    56 1   
    41    18    19 1   
    42    18    57 1   
    43    18    58 1   
    44    19    20 2   
    45    19    21 1   
    46    21    22 1   
    47    21    59 1   
    48    22    23 2   
    49    22    26 1   
    50    23    24 1   
    51    24    25 2   
    52    24    27 1   
    53    25    26 1   
    54    25    60 1   
    55    27    28 2   
    56    27    31 1   
    57    28    29 1   
    58    28    61 1   
    59    29    30 1   
    60    29    62 1   
    61    30    31 ar  
    62    30    35 ar  
    63    31    32 ar  
    64    32    33 ar  
    65    32    63 1   
    66    33    34 ar  
    67    33    64 1   
    68    34    35 ar  
    69    34    65 1   
@<TRIPOS>SUBSTRUCTURE
     1 6U2         1 TEMP              0 ****  ****    0 ROOT
