@<TRIPOS>MOLECULE
6U3
   72    76     1     0     0
SMALL
bcc


@<TRIPOS>ATOM
      1 OAX          3.4080     3.2580     1.9140 os         1 6U3      -0.359800
      2 CAL          4.3650     4.2080     2.0640 cc         1 6U3       0.136300
      3 CAK          5.3910     3.8700     1.2590 cd         1 6U3       0.233900
      4 NAT          5.0800     2.7040     0.5960 nd         1 6U3      -0.672000
      5 CBC          3.9010     2.3870     1.0200 cc         1 6U3       0.581900
      6 CBE          3.0540     1.2710     0.6820 cc         1 6U3      -0.175600
      7 CBA          3.2850     0.2090    -0.1470 cd         1 6U3       0.064700
      8 CAB          4.5460    -0.0350    -0.9080 c3         1 6U3      -0.048800
      9 SAY          1.4680     1.2350     1.4090 ss         1 6U3       0.018200
     10 CBH          1.1140    -0.2290     0.6070 cc         1 6U3       0.147500
     11 CBI          2.1510    -0.6640    -0.1750 cd         1 6U3      -0.291600
     12 CBF          1.9890    -1.8780    -0.9450 c          1 6U3       0.763100
     13 OAG          2.7420    -2.2170    -1.8310 o          1 6U3      -0.589500
     14 NBM          0.8750    -2.6510    -0.5780 n          1 6U3      -0.519400
     15 CBN          0.6760    -4.0240    -1.1300 c3         1 6U3       0.058400
     16 CAD         -0.0870    -3.9640    -2.4460 c3         1 6U3      -0.094100
     17 CAC          1.9950    -4.7950    -1.3330 c3         1 6U3      -0.094100
     18 CAZ         -0.0670    -4.8840    -0.0810 c          1 6U3       0.684100
     19 OAF         -0.9530    -5.6530    -0.4100 o          1 6U3      -0.590100
     20 NAE          0.4400    -4.8360     1.1600 nt         1 6U3      -0.676000
     21 CBG         -0.2310    -2.1080     0.0700 c          1 6U3       0.813500
     22 OAH         -1.3020    -2.6740     0.0910 o          1 6U3      -0.605500
     23 NBL         -0.0640    -0.9000     0.7140 n          1 6U3      -0.334000
     24 CAS         -1.2210    -0.3030     1.3730 c3         1 6U3       0.101000
     25 CBK         -2.0660     0.5100     0.3880 c3         1 6U3       0.190400
     26 OAW         -1.1980     1.4220    -0.2260 os         1 6U3      -0.426600
     27 CBJ         -1.3030     1.5750    -1.6270 c6         1 6U3       0.156100
     28 CAQ          0.0420     2.0560    -2.1480 c6         1 6U3      -0.129900
     29 CAO         -0.0480     2.3140    -3.6460 c6         1 6U3       0.133400
     30 OAV         -1.0700     3.2310    -3.9670 os         1 6U3      -0.401600
     31 CAP         -2.3390     2.7800    -3.5450 c6         1 6U3       0.133400
     32 CAR         -2.3910     2.5580    -2.0390 c6         1 6U3      -0.129900
     33 CBD         -3.1970     1.1920     1.1270 ca         1 6U3      -0.158300
     34 CAN         -3.1050     2.5230     1.5040 ca         1 6U3      -0.072000
     35 CAJ         -4.1330     3.1490     2.2010 ca         1 6U3      -0.172000
     36 CAI         -5.2690     2.4280     2.5260 ca         1 6U3      -0.081000
     37 CAM         -5.3850     1.0900     2.1650 ca         1 6U3      -0.219000
     38 CBB         -4.3500     0.4700     1.4700 ca         1 6U3       0.150100
     39 OAU         -4.3700    -0.8220     1.0890 os         1 6U3      -0.319900
     40 CAA         -5.5140    -1.6030     1.3700 c3         1 6U3       0.124700
     41 H1           4.1690     5.0160     2.7470 h4         1 6U3       0.067100
     42 H2           6.3280     4.3820     1.1100 h4         1 6U3       0.050100
     43 H3           4.9320    -1.0330    -0.7040 hc         1 6U3       0.066367
     44 H4           4.3660     0.0240    -1.9820 hc         1 6U3       0.066367
     45 H5           5.3080     0.6930    -0.6500 hc         1 6U3       0.066367
     46 H6           0.4670    -3.3550    -3.1590 hc         1 6U3       0.055533
     47 H7          -0.1860    -4.9620    -2.8710 hc         1 6U3       0.055533
     48 H8          -1.0840    -3.5460    -2.3310 hc         1 6U3       0.055533
     49 H9           2.6850    -4.6790    -0.4990 hc         1 6U3       0.055533
     50 H10          1.7500    -5.8560    -1.4120 hc         1 6U3       0.055533
     51 H11          2.5000    -4.5130    -2.2500 hc         1 6U3       0.055533
     52 H12          1.2000    -4.2310     1.4200 hn         1 6U3       0.314000
     53 H13          0.0520    -5.4180     1.8830 hn         1 6U3       0.314000
     54 H14         -1.8130    -1.0900     1.8310 h1         1 6U3       0.082700
     55 H15         -0.8610     0.3330     2.1850 h1         1 6U3       0.082700
     56 H16         -2.4870    -0.1780    -0.3560 h1         1 6U3       0.076700
     57 H17         -1.5260     0.5990    -2.0840 h1         1 6U3       0.035700
     58 H18          0.3340     2.9710    -1.6250 hc         1 6U3       0.061450
     59 H19          0.8180     1.3090    -1.9580 hc         1 6U3       0.061450
     60 H20          0.8880     2.7330    -4.0180 h1         1 6U3       0.046450
     61 H21         -0.2110     1.3610    -4.1720 h1         1 6U3       0.046450
     62 H22         -3.0640     3.5380    -3.8450 h1         1 6U3       0.046450
     63 H23         -2.6070     1.8480    -4.0650 h1         1 6U3       0.046450
     64 H24         -3.3830     2.1900    -1.7630 hc         1 6U3       0.061450
     65 H25         -2.2390     3.5090    -1.5190 hc         1 6U3       0.061450
     66 H26         -2.2200     3.0850     1.2400 ha         1 6U3       0.147000
     67 H27         -4.0420     4.1890     2.4830 ha         1 6U3       0.136000
     68 H28         -6.0800     2.8990     3.0660 ha         1 6U3       0.131000
     69 H29         -6.2810     0.5480     2.4340 ha         1 6U3       0.138000
     70 H30         -5.6970    -1.6860     2.4450 h1         1 6U3       0.044367
     71 H31         -6.4100    -1.2030     0.8890 h1         1 6U3       0.044367
     72 H32         -5.3140    -2.5940     0.9720 h1         1 6U3       0.044367
@<TRIPOS>BOND
     1     1     2 1   
     2     1     5 1   
     3     2     3 2   
     4     2    41 1   
     5     3     4 1   
     6     3    42 1   
     7     4     5 2   
     8     5     6 1   
     9     6     7 2   
    10     6     9 1   
    11     7     8 1   
    12     7    11 1   
    13     8    43 1   
    14     8    44 1   
    15     8    45 1   
    16     9    10 1   
    17    10    11 2   
    18    10    23 1   
    19    11    12 1   
    20    12    13 2   
    21    12    14 1   
    22    14    15 1   
    23    14    21 1   
    24    15    16 1   
    25    15    17 1   
    26    15    18 1   
    27    16    46 1   
    28    16    47 1   
    29    16    48 1   
    30    17    49 1   
    31    17    50 1   
    32    17    51 1   
    33    18    19 2   
    34    18    20 1   
    35    20    52 1   
    36    20    53 1   
    37    21    22 2   
    38    21    23 1   
    39    23    24 1   
    40    24    25 1   
    41    24    54 1   
    42    24    55 1   
    43    25    26 1   
    44    25    33 1   
    45    25    56 1   
    46    26    27 1   
    47    27    28 1   
    48    27    32 1   
    49    27    57 1   
    50    28    29 1   
    51    28    58 1   
    52    28    59 1   
    53    29    30 1   
    54    29    60 1   
    55    29    61 1   
    56    30    31 1   
    57    31    32 1   
    58    31    62 1   
    59    31    63 1   
    60    32    64 1   
    61    32    65 1   
    62    33    34 ar  
    63    33    38 ar  
    64    34    35 ar  
    65    34    66 1   
    66    35    36 ar  
    67    35    67 1   
    68    36    37 ar  
    69    36    68 1   
    70    37    38 ar  
    71    37    69 1   
    72    38    39 1   
    73    39    40 1   
    74    40    70 1   
    75    40    71 1   
    76    40    72 1   
@<TRIPOS>SUBSTRUCTURE
     1 6U3         1 TEMP              0 ****  ****    0 ROOT
