@<TRIPOS>MOLECULE
6U3
   72    76     1     0     0
SMALL
No Charge or Current Charge


@<TRIPOS>ATOM
      1 OAX          3.3580     3.5700     1.7650 os         1 6U3      -0.271000
      2 CAL          4.3210     4.5260     1.7340 cc         1 6U3       0.091900
      3 CAK          5.3240     4.1180     0.8990 cd         1 6U3       0.233900
      4 NAT          4.9980     2.8790     0.3870 nd         1 6U3      -0.672000
      5 CBC          3.8270     2.5930     0.9340 cc         1 6U3       0.537500
      6 CBE          2.9950     1.4370     0.7490 cc         1 6U3      -0.320500
      7 CBA          3.2650     0.3240    -0.0370 cd         1 6U3       0.064700
      8 CAB          4.5730     0.0660    -0.7640 c3         1 6U3      -0.048800
      9 SAY          1.4350     1.3480     1.5350 ss         1 6U3       0.308000
     10 CBH          1.0820    -0.1440     0.6770 cc         1 6U3       0.002600
     11 CBI          2.1250    -0.5660    -0.0960 cd         1 6U3      -0.291600
     12 CBF          1.9790    -1.8060    -0.9120 c          1 6U3       0.620600
     13 OAG          2.8370    -2.1230    -1.7180 o          1 6U3      -0.514000
     14 NBM          0.7790    -2.5500    -0.7170 n          1 6U3      -0.385400
     15 CBN          0.5770    -3.9420    -1.3530 c3         1 6U3       0.058400
     16 CAD         -0.2590    -3.7660    -2.6560 c3         1 6U3      -0.094100
     17 CAC          1.8810    -4.7000    -1.7770 c3         1 6U3      -0.094100
     18 CAZ         -0.1120    -4.9640    -0.3680 c          1 6U3       0.617100
     19 OAF         -1.0510    -5.6860    -0.6690 o          1 6U3      -0.590100
     20 NAE          0.3850    -5.0120     0.8930 nt         1 6U3      -0.609000
     21 CBG         -0.3120    -2.0170     0.0220 c          1 6U3       0.604000
     22 OAH         -1.4050    -2.5670     0.0450 o          1 6U3      -0.530000
     23 NBL         -0.1340    -0.8040     0.7110 n          1 6U3      -0.267000
     24 CAS         -1.2990    -0.2290     1.4450 c3         1 6U3       0.101000
     25 CBK         -2.2430     0.6610     0.5900 c3         1 6U3       0.213600
     26 OAW         -1.4810     1.6730    -0.1160 os         1 6U3      -0.473000
     27 CBJ         -1.0320     1.3870    -1.4610 c6         1 6U3       0.179300
     28 CAQ          0.0220     2.4350    -1.8840 c6         1 6U3      -0.129900
     29 CAO          0.4460     2.2080    -3.3510 c6         1 6U3       0.156600
     30 OAV         -0.7180     2.2390    -4.2040 os         1 6U3      -0.448000
     31 CAP         -1.6870     1.2120    -3.9090 c6         1 6U3       0.156600
     32 CAR         -2.2130     1.3800    -2.4660 c6         1 6U3      -0.129900
     33 CBD         -3.2870     1.3530     1.4700 ca         1 6U3      -0.158300
     34 CAN         -2.9840     2.5800     2.1020 ca         1 6U3      -0.054000
     35 CAJ         -3.9330     3.2130     2.9210 ca         1 6U3      -0.154000
     36 CAI         -5.1910     2.6280     3.1220 ca         1 6U3      -0.063000
     37 CAM         -5.5010     1.4040     2.5070 ca         1 6U3      -0.201000
     38 CBB         -4.5520     0.7590     1.6820 ca         1 6U3       0.150100
     39 OAU         -4.8210    -0.4550     1.0770 os         1 6U3      -0.343100
     40 CAA         -6.0750    -1.1400     1.2400 c3         1 6U3       0.147900
     41 H1           4.1810     5.4200     2.3260 h4         1 6U3       0.067100
     42 H2           6.2400     4.6340     0.6420 h4         1 6U3       0.050100
     43 H3           4.7980    -1.0000    -0.8430 hc         1 6U3       0.066367
     44 H4           4.5550     0.4920    -1.7730 hc         1 6U3       0.066367
     45 H5           5.4320     0.4800    -0.2300 hc         1 6U3       0.066367
     46 H6           0.2370    -3.0710    -3.3430 hc         1 6U3       0.055533
     47 H7          -0.3880    -4.7230    -3.1780 hc         1 6U3       0.055533
     48 H8          -1.2580    -3.3690    -2.4410 hc         1 6U3       0.055533
     49 H9           2.6270    -4.6900    -0.9730 hc         1 6U3       0.055533
     50 H10          1.6600    -5.7500    -2.0040 hc         1 6U3       0.055533
     51 H11          2.3290    -4.2860    -2.6870 hc         1 6U3       0.055533
     52 H12          1.1580    -4.4190     1.1550 hn         1 6U3       0.314000
     53 H13         -0.0300    -5.6430     1.5630 hn         1 6U3       0.314000
     54 H14         -1.8940    -1.0400     1.8830 h1         1 6U3       0.082700
     55 H15         -0.9430     0.3590     2.2980 h1         1 6U3       0.082700
     56 H16         -2.7580     0.0080    -0.1250 h1         1 6U3       0.076700
     57 H17         -0.5560     0.3980    -1.4840 h1         1 6U3       0.035700
     58 H18         -0.3870     3.4470    -1.7700 hc         1 6U3       0.061450
     59 H19          0.9030     2.3710    -1.2340 hc         1 6U3       0.061450
     60 H20          1.1440     2.9960    -3.6670 h1         1 6U3       0.046450
     61 H21          0.9530     1.2370    -3.4590 h1         1 6U3       0.046450
     62 H22         -2.5190     1.2880    -4.6250 h1         1 6U3       0.046450
     63 H23         -1.2190     0.2240    -4.0330 h1         1 6U3       0.046450
     64 H24         -2.9140     0.5660    -2.2440 hc         1 6U3       0.061450
     65 H25         -2.7780     2.3190    -2.3860 hc         1 6U3       0.061450
     66 H26         -2.0110     3.0460     1.9600 ha         1 6U3       0.129000
     67 H27         -3.6910     4.1580     3.4000 ha         1 6U3       0.118000
     68 H28         -5.9250     3.1200     3.7570 ha         1 6U3       0.113000
     69 H29         -6.4810     0.9710     2.6870 ha         1 6U3       0.120000
     70 H30         -6.2560    -1.3800     2.2950 h1         1 6U3       0.044367
     71 H31         -6.9060    -0.5260     0.8700 h1         1 6U3       0.044367
     72 H32         -6.0700    -2.0800     0.6740 h1         1 6U3       0.044367
@<TRIPOS>BOND
     1     1     2 1   
     2     1     5 1   
     3     2     3 2   
     4     2    41 1   
     5     3     4 1   
     6     3    42 1   
     7     4     5 2   
     8     5     6 1   
     9     6     7 2   
    10     6     9 1   
    11     7     8 1   
    12     7    11 1   
    13     8    43 1   
    14     8    44 1   
    15     8    45 1   
    16     9    10 1   
    17    10    11 2   
    18    10    23 1   
    19    11    12 1   
    20    12    13 2   
    21    12    14 1   
    22    14    15 1   
    23    14    21 1   
    24    15    16 1   
    25    15    17 1   
    26    15    18 1   
    27    16    46 1   
    28    16    47 1   
    29    16    48 1   
    30    17    49 1   
    31    17    50 1   
    32    17    51 1   
    33    18    19 2   
    34    18    20 1   
    35    20    52 1   
    36    20    53 1   
    37    21    22 2   
    38    21    23 1   
    39    23    24 1   
    40    24    25 1   
    41    24    54 1   
    42    24    55 1   
    43    25    26 1   
    44    25    33 1   
    45    25    56 1   
    46    26    27 1   
    47    27    28 1   
    48    27    32 1   
    49    27    57 1   
    50    28    29 1   
    51    28    58 1   
    52    28    59 1   
    53    29    30 1   
    54    29    60 1   
    55    29    61 1   
    56    30    31 1   
    57    31    32 1   
    58    31    62 1   
    59    31    63 1   
    60    32    64 1   
    61    32    65 1   
    62    33    34 ar  
    63    33    38 ar  
    64    34    35 ar  
    65    34    66 1   
    66    35    36 ar  
    67    35    67 1   
    68    36    37 ar  
    69    36    68 1   
    70    37    38 ar  
    71    37    69 1   
    72    38    39 1   
    73    39    40 1   
    74    40    70 1   
    75    40    71 1   
    76    40    72 1   
@<TRIPOS>SUBSTRUCTURE
     1 6U3         1 TEMP              0 ****  ****    0 ROOT
