@<TRIPOS>MOLECULE
6U5
   35    36     1     0     0
SMALL
No Charge or Current Charge


@<TRIPOS>ATOM
      1 N1          12.4120    13.3370     2.8740 nc         1 6U5      -0.510100
      2 C4           8.6560    14.7440     5.2540 ca         1 6U5       0.288000
      3 C5           8.0330    14.3910     4.0330 ca         1 6U5      -0.186000
      4 C6           8.7850    13.8850     2.9510 ca         1 6U5      -0.008000
      5 C7          10.1640    13.7510     3.1390 ca         1 6U5      -0.244900
      6 C8          11.2150    13.2810     2.2640 cd         1 6U5       0.363800
      7 C10         10.7750    14.0920     4.3000 ca         1 6U5      -0.014200
      8 O1           9.2940    16.0000     8.1750 o          1 6U5      -0.533000
      9 S            8.0900    15.2060     7.9170 s6         1 6U5       1.202100
     10 O            6.8010    15.6070     8.4810 o          1 6U5      -0.533000
     11 C3           8.4010    13.4740     8.3110 c3         1 6U5      -0.340400
     12 C2           8.8200    13.2010     9.7820 c3         1 6U5      -0.041400
     13 C1           7.7320    13.4550    10.8540 c3         1 6U5      -0.084400
     14 C            6.4600    12.5970    10.6860 c3         1 6U5      -0.088100
     15 N            7.8480    15.2350     6.2750 nu         1 6U5      -0.879100
     16 C11         10.0570    14.6000     5.3910 ca         1 6U5      -0.150000
     17 N2          12.1270    13.8450     4.1450 na         1 6U5       0.064600
     18 C9          13.1440    14.0810     5.1810 c3         1 6U5       0.079900
     19 H1           6.9590    14.5080     3.9200 ha         1 6U5       0.115000
     20 H2           8.3100    13.6110     2.0110 ha         1 6U5       0.123000
     21 H3          11.1570    12.9150     1.2460 h4         1 6U5       0.052800
     22 H4           7.4940    12.9220     8.0440 h1         1 6U5       0.092700
     23 H5           9.2090    13.1620     7.6420 h1         1 6U5       0.092700
     24 H6           9.1400    12.1550     9.8600 hc         1 6U5       0.055200
     25 H7           9.7050    13.8050    10.0240 hc         1 6U5       0.055200
     26 H8           8.1640    13.2400    11.8400 hc         1 6U5       0.049700
     27 H9           7.4560    14.5160    10.8700 hc         1 6U5       0.049700
     28 H10          5.7760    12.7620    11.5270 hc         1 6U5       0.034367
     29 H11          5.9280    12.8570     9.7630 hc         1 6U5       0.034367
     30 H12          6.7120    11.5300    10.6540 hc         1 6U5       0.034367
     31 H13          6.8480    15.1890     6.1460 hn         1 6U5       0.490000
     32 H14         10.5730    14.8740     6.3040 ha         1 6U5       0.157000
     33 H15         14.1340    13.7970     4.8040 h1         1 6U5       0.058367
     34 H16         13.1500    15.1430     5.4530 h1         1 6U5       0.058367
     35 H17         12.9090    13.4790     6.0680 h1         1 6U5       0.058367
@<TRIPOS>BOND
     1     1     6 2   
     2     1    17 1   
     3     2     3 ar  
     4     2    15 1   
     5     2    16 ar  
     6     3     4 ar  
     7     3    19 1   
     8     4     5 ar  
     9     4    20 1   
    10     5     6 1   
    11     5     7 ar  
    12     6    21 1   
    13     7    16 ar  
    14     7    17 1   
    15     8     9 2   
    16     9    10 2   
    17     9    11 1   
    18     9    15 1   
    19    11    12 1   
    20    11    22 1   
    21    11    23 1   
    22    12    13 1   
    23    12    24 1   
    24    12    25 1   
    25    13    14 1   
    26    13    26 1   
    27    13    27 1   
    28    14    28 1   
    29    14    29 1   
    30    14    30 1   
    31    15    31 1   
    32    16    32 1   
    33    17    18 1   
    34    18    33 1   
    35    18    34 1   
    36    18    35 1   
@<TRIPOS>SUBSTRUCTURE
     1 6U5         1 TEMP              0 ****  ****    0 ROOT
