@<TRIPOS>MOLECULE
6U5
   35    36     1     0     0
SMALL
abcg2


@<TRIPOS>ATOM
      1 N1          12.4050    13.3300     3.0120 nc         1 6U5      -0.510100
      2 C4           8.7790    14.8080     5.3600 ca         1 6U5       0.288000
      3 C5           8.0910    14.1630     4.3010 ca         1 6U5      -0.186000
      4 C6           8.7730    13.5460     3.2760 ca         1 6U5      -0.008000
      5 C7          10.1750    13.5460     3.3080 ca         1 6U5      -0.244900
      6 C8          11.2250    13.0370     2.4950 cd         1 6U5       0.363800
      7 C10         10.8420    14.1860     4.3790 ca         1 6U5      -0.014200
      8 O1           9.5560    15.6060     8.3280 o          1 6U5      -0.533000
      9 S            8.2240    15.1670     7.9850 s6         1 6U5       1.202100
     10 O            7.0990    15.8010     8.6320 o          1 6U5      -0.533000
     11 C3           8.1440    13.3890     8.1760 c3         1 6U5      -0.340400
     12 C2           8.6250    12.8870     9.5370 c3         1 6U5      -0.041400
     13 C1           7.7680    13.2870    10.7410 c3         1 6U5      -0.084400
     14 C            6.3240    12.7940    10.6640 c3         1 6U5      -0.088100
     15 N            7.9910    15.4390     6.3620 nu         1 6U5      -0.879100
     16 C11         10.1610    14.8430     5.4100 ca         1 6U5      -0.150000
     17 N2          12.1750    14.0230     4.1590 na         1 6U5       0.064600
     18 C9          13.2700    14.5380     4.9520 c3         1 6U5       0.079900
     19 H1           7.0090    14.1610     4.3140 ha         1 6U5       0.115000
     20 H2           8.2340    13.0630     2.4720 ha         1 6U5       0.123000
     21 H3          11.1580    12.4760     1.5760 h4         1 6U5       0.052800
     22 H4           7.1100    13.1210     7.9600 h1         1 6U5       0.092700
     23 H5           8.7770    12.9930     7.3800 h1         1 6U5       0.092700
     24 H6           8.6540    11.7960     9.4630 hc         1 6U5       0.055200
     25 H7           9.6540    13.2180     9.6880 hc         1 6U5       0.055200
     26 H8           8.2430    12.8740    11.6340 hc         1 6U5       0.049700
     27 H9           7.7810    14.3730    10.8610 hc         1 6U5       0.049700
     28 H10          5.7840    13.0330    11.5820 hc         1 6U5       0.034367
     29 H11          5.7820    13.2550     9.8360 hc         1 6U5       0.034367
     30 H12          6.2880    11.7100    10.5260 hc         1 6U5       0.034367
     31 H13          6.9980    15.4520     6.1560 hn         1 6U5       0.490000
     32 H14         10.6810    15.3500     6.2080 ha         1 6U5       0.157000
     33 H15         14.1790    14.0280     4.6440 h1         1 6U5       0.058367
     34 H16         13.3890    15.6140     4.8020 h1         1 6U5       0.058367
     35 H17         13.0860    14.3420     6.0080 h1         1 6U5       0.058367
@<TRIPOS>BOND
     1     1     6 2   
     2     1    17 1   
     3     2     3 ar  
     4     2    15 1   
     5     2    16 ar  
     6     3     4 ar  
     7     3    19 1   
     8     4     5 ar  
     9     4    20 1   
    10     5     6 1   
    11     5     7 ar  
    12     6    21 1   
    13     7    16 ar  
    14     7    17 1   
    15     8     9 2   
    16     9    10 2   
    17     9    11 1   
    18     9    15 1   
    19    11    12 1   
    20    11    22 1   
    21    11    23 1   
    22    12    13 1   
    23    12    24 1   
    24    12    25 1   
    25    13    14 1   
    26    13    26 1   
    27    13    27 1   
    28    14    28 1   
    29    14    29 1   
    30    14    30 1   
    31    15    31 1   
    32    16    32 1   
    33    17    18 1   
    34    18    33 1   
    35    18    34 1   
    36    18    35 1   
@<TRIPOS>SUBSTRUCTURE
     1 6U5         1 TEMP              0 ****  ****    0 ROOT
