@<TRIPOS>MOLECULE
6U6
   22    23     1     0     0
SMALL
abcg2


@<TRIPOS>ATOM
      1 C9          -1.1140     1.1230    -0.0870 ca         1 6U6      -0.201000
      2 C1           3.2600    -0.2850    -0.4640 c3         1 6U6      -0.209400
      3 C3           1.0520     0.2060     0.5770 cc         1 6U6       0.459200
      4 C2           2.5020    -0.0070     0.8350 c3         1 6U6      -0.093700
      5 C5          -2.2720    -0.9620     0.3360 ca         1 6U6      -0.058000
      6 C8          -2.2930     1.7410    -0.4830 ca         1 6U6      -0.061000
      7 O1           5.4010    -0.7840    -1.3290 o          1 6U6      -0.732500
      8 C7          -3.4610     1.0010    -0.4690 ca         1 6U6      -0.120000
      9 C6          -3.4350    -0.3350    -0.0620 ca         1 6U6       0.112000
     10 C4          -1.0920    -0.2200     0.3230 ca         1 6U6       0.116400
     11 CL          -4.9190    -1.2310    -0.0590 cl         1 6U6      -0.226000
     12 N            0.1430    -0.6980     0.6900 nd         1 6U6      -0.561100
     13 S            0.4880     1.7640     0.0050 ss         1 6U6       0.002800
     14 C            4.7620    -0.5770    -0.2780 c          1 6U6       0.722000
     15 O            5.2120    -0.5870     0.8830 o          1 6U6      -0.732500
     16 H1           2.8010    -1.1360    -0.9780 hc         1 6U6       0.028200
     17 H2           3.1530     0.5620    -1.1490 hc         1 6U6       0.028200
     18 H3           2.6020    -0.8500     1.5180 hc         1 6U6       0.074200
     19 H4           2.9230     0.8680     1.3350 hc         1 6U6       0.074200
     20 H5          -2.2630    -1.9960     0.6500 ha         1 6U6       0.142000
     21 H6          -2.3090     2.7750    -0.7990 ha         1 6U6       0.119000
     22 H8          -4.3930     1.4580    -0.7700 ha         1 6U6       0.118000
@<TRIPOS>BOND
     1     1     6 ar  
     2     1    10 ar  
     3     1    13 1   
     4     2     4 1   
     5     2    14 1   
     6     2    16 1   
     7     2    17 1   
     8     3     4 1   
     9     3    12 2   
    10     3    13 1   
    11     4    18 1   
    12     4    19 1   
    13     5     9 ar  
    14     5    10 ar  
    15     5    20 1   
    16     6     8 ar  
    17     6    21 1   
    18     7    14 1   
    19     8     9 ar  
    20     8    22 1   
    21     9    11 1   
    22    10    12 1   
    23    14    15 1   
@<TRIPOS>SUBSTRUCTURE
     1 6U6         1 TEMP              0 ****  ****    0 ROOT
