@<TRIPOS>MOLECULE
6U6
   22    23     1     0     0
SMALL
No Charge or Current Charge


@<TRIPOS>ATOM
      1 C9          -1.1180     1.0760    -0.2130 ca         1 6U6      -0.201000
      2 C1           3.3220    -0.4290    -0.5420 c3         1 6U6      -0.209400
      3 C3           1.0500     0.2560     0.4240 cc         1 6U6       0.459200
      4 C2           2.5180     0.0600     0.6940 c3         1 6U6      -0.093700
      5 C5          -2.3070    -0.8910     0.5140 ca         1 6U6      -0.058000
      6 C8          -2.3060     1.6900    -0.6360 ca         1 6U6      -0.061000
      7 O1           5.5390     0.3680    -0.2950 o          1 6U6      -0.732500
      8 C7          -3.5170     0.9900    -0.4770 ca         1 6U6      -0.120000
      9 C6          -3.5150    -0.2980     0.0970 ca         1 6U6       0.112000
     10 C4          -1.1050    -0.1850     0.3510 ca         1 6U6       0.116400
     11 Cl          -5.0310    -1.1680     0.2940 cl         1 6U6      -0.226000
     12 N            0.1370    -0.6800     0.7280 nd         1 6U6      -0.561100
     13 S            0.4890     1.7720    -0.3210 ss         1 6U6       0.002800
     14 C            4.8050    -0.6000    -0.1790 c          1 6U6       0.722000
     15 O            5.1670    -1.6770     0.2690 o          1 6U6      -0.732500
     16 H1           2.8820    -1.3940    -0.8230 hc         1 6U6       0.028200
     17 H2           3.2030     0.3490    -1.3060 hc         1 6U6       0.028200
     18 H3           2.6440    -0.6580     1.5130 hc         1 6U6       0.074200
     19 H4           2.9440     1.0060     1.0510 hc         1 6U6       0.074200
     20 H5          -2.3060    -1.8830     0.9560 ha         1 6U6       0.142000
     21 H6          -2.2950     2.6850    -1.0780 ha         1 6U6       0.119000
     22 H8          -4.4530     1.4410    -0.7960 ha         1 6U6       0.118000
@<TRIPOS>BOND
     1     1     6 ar  
     2     1    10 ar  
     3     1    13 1   
     4     2     4 1   
     5     2    14 1   
     6     2    16 1   
     7     2    17 1   
     8     3     4 1   
     9     3    12 2   
    10     3    13 1   
    11     4    18 1   
    12     4    19 1   
    13     5     9 ar  
    14     5    10 ar  
    15     5    20 1   
    16     6     8 ar  
    17     6    21 1   
    18     7    14 1   
    19     8     9 ar  
    20     8    22 1   
    21     9    11 1   
    22    10    12 1   
    23    14    15 1   
@<TRIPOS>SUBSTRUCTURE
     1 6U6         1 TEMP              0 ****  ****    0 ROOT
