@<TRIPOS>MOLECULE
6U7
   50    53     1     0     0
SMALL
abcg2


@<TRIPOS>ATOM
      1 C4          -1.4800     0.9160     0.1160 ca         1 6U7       0.404900
      2 C5          -2.8320     0.4570     0.0080 ca         1 6U7      -0.170000
      3 C6          -3.8150     1.4600     0.0140 ca         1 6U7       0.066000
      4 N1          -3.5020     2.7790     0.1020 nb         1 6U7      -0.205000
      5 N3          -1.2050     2.2010     0.2030 nb         1 6U7      -0.270000
      6 CBB         -7.8520     0.2820    -0.2420 c3         1 6U7       0.142900
      7 CAG         -5.5450    -0.2200    -0.1610 ca         1 6U7       0.157100
      8 CAF         -5.1760     1.0960    -0.0730 ca         1 6U7      -0.187000
      9 CAH         -4.5430    -1.2430    -0.1720 ca         1 6U7       0.115100
     10 OAY         -5.0180    -2.4920    -0.2650 os         1 6U7      -0.316100
     11 CAZ         -4.0920    -3.5610    -0.2710 c3         1 6U7       0.143900
     12 CAC         -3.2210    -0.8980    -0.0920 ca         1 6U7      -0.159000
     13 C2          -2.2320     3.0580     0.1870 ca         1 6U7       0.162900
     14 NAK         -0.4610     0.0230     0.1440 nu         1 6U7      -0.945900
     15 CAL          0.9120     0.2920     0.2600 ca         1 6U7       0.295000
     16 CAQ          1.6750    -0.5410     1.0930 ca         1 6U7      -0.103300
     17 CBC          1.0310    -1.6470     1.8760 c3         1 6U7      -0.048800
     18 CAP          3.0440    -0.3210     1.1810 ca         1 6U7      -0.107000
     19 CAM          1.5250     1.3150    -0.4570 ca         1 6U7      -0.092000
     20 CAN          2.8900     1.5290    -0.3490 ca         1 6U7      -0.100000
     21 CAO          3.6430     0.7090     0.4730 ca         1 6U7       0.086100
     22 OAR          4.9870     0.9490     0.6160 os         1 6U7      -0.253200
     23 CAS          5.8790     0.1360    -0.0180 ca         1 6U7       0.134100
     24 CAT          7.2110     0.2710     0.3650 ca         1 6U7      -0.160000
     25 CAU          8.1820    -0.5070    -0.2450 ca         1 6U7      -0.079500
     26 CAV          7.8390    -1.4230    -1.2320 ca         1 6U7      -0.143000
     27 CAW          6.5090    -1.5480    -1.6060 ca         1 6U7      -0.079500
     28 CAX          5.5220    -0.7740    -1.0070 ca         1 6U7      -0.160000
     29 H1          -7.7820     0.9640    -1.0920 h1         1 6U7       0.046033
     30 H2          -8.7760    -0.2840    -0.3170 h1         1 6U7       0.046033
     31 H3          -7.8670     0.8650     0.6820 h1         1 6U7       0.046033
     32 H4          -5.9050     1.8940    -0.0650 ha         1 6U7       0.143000
     33 H5          -4.6760    -4.4740    -0.3460 h1         1 6U7       0.041700
     34 H6          -3.4130    -3.5060    -1.1260 h1         1 6U7       0.041700
     35 H7          -3.5040    -3.5930     0.6500 h1         1 6U7       0.041700
     36 H8          -2.4760    -1.6810    -0.1130 ha         1 6U7       0.111000
     37 H9          -1.9620     4.1070     0.2570 h5         1 6U7       0.046100
     38 H10         -0.7090    -0.9510     0.1830 hn         1 6U7       0.499000
     39 H11          0.6490    -2.4390     1.2260 hc         1 6U7       0.043700
     40 H12          1.7420    -2.1090     2.5570 hc         1 6U7       0.043700
     41 H13          0.1900    -1.2810     2.4680 hc         1 6U7       0.043700
     42 H14          3.6470    -0.9520     1.8220 ha         1 6U7       0.128000
     43 H15          0.9400     1.9440    -1.1100 ha         1 6U7       0.141000
     44 H16          3.3620     2.3270    -0.9070 ha         1 6U7       0.133000
     45 H17          7.4780     0.9810     1.1370 ha         1 6U7       0.126000
     46 H18          9.2150    -0.3990     0.0610 ha         1 6U7       0.112500
     47 H19          8.5980    -2.0340    -1.7020 ha         1 6U7       0.115000
     48 H20          6.2260    -2.2540    -2.3760 ha         1 6U7       0.112500
     49 H21          4.4920    -0.8850    -1.3200 ha         1 6U7       0.126000
     50 OBA         -6.8000    -0.6670    -0.2440 os         1 6U7      -0.317100
@<TRIPOS>BOND
     1     1     2 ar  
     2     1     5 ar  
     3     1    14 1   
     4     2     3 ar  
     5     2    12 ar  
     6     3     4 ar  
     7     3     8 ar  
     8     4    13 ar  
     9     5    13 ar  
    10     6    29 1   
    11     6    30 1   
    12     6    31 1   
    13     6    50 1   
    14     7     8 ar  
    15     7     9 ar  
    16     7    50 1   
    17     8    32 1   
    18     9    10 1   
    19     9    12 ar  
    20    10    11 1   
    21    11    33 1   
    22    11    34 1   
    23    11    35 1   
    24    12    36 1   
    25    13    37 1   
    26    14    15 1   
    27    14    38 1   
    28    15    16 ar  
    29    15    19 ar  
    30    16    17 1   
    31    16    18 ar  
    32    17    39 1   
    33    17    40 1   
    34    17    41 1   
    35    18    21 ar  
    36    18    42 1   
    37    19    20 ar  
    38    19    43 1   
    39    20    21 ar  
    40    20    44 1   
    41    21    22 1   
    42    22    23 1   
    43    23    24 ar  
    44    23    28 ar  
    45    24    25 ar  
    46    24    45 1   
    47    25    26 ar  
    48    25    46 1   
    49    26    27 ar  
    50    26    47 1   
    51    27    28 ar  
    52    27    48 1   
    53    28    49 1   
@<TRIPOS>SUBSTRUCTURE
     1 6U7         1 TEMP              0 ****  ****    0 ROOT
