@<TRIPOS>MOLECULE
6U7
   50    53     1     0     0
SMALL
No Charge or Current Charge


@<TRIPOS>ATOM
      1 C4          -1.6230     1.1510     0.2690 ca         1 6U7       0.404900
      2 C5          -2.9350     0.6270     0.1420 ca         1 6U7      -0.170000
      3 C6          -4.0100     1.5480     0.1960 ca         1 6U7       0.066000
      4 N1          -3.7760     2.8650     0.3670 nb         1 6U7      -0.205000
      5 N3          -1.4070     2.4650     0.4500 nb         1 6U7      -0.270000
      6 CBB         -8.0450     0.0830    -0.1810 c3         1 6U7       0.142900
      7 CAG         -5.5970    -0.2950    -0.1050 ca         1 6U7       0.157100
      8 CAF         -5.3290     1.0800     0.0740 ca         1 6U7      -0.187000
      9 CAH         -4.5260    -1.2160    -0.1640 ca         1 6U7       0.115100
     10 OAY         -4.8190    -2.5600    -0.3440 os         1 6U7      -0.316100
     11 CAZ         -3.8010    -3.5740    -0.4170 c3         1 6U7       0.143900
     12 CAC         -3.1960    -0.7520    -0.0420 ca         1 6U7      -0.159000
     13 C2          -2.4930     3.2570     0.4840 ca         1 6U7       0.162900
     14 NAK         -0.5000     0.3210     0.2760 nu         1 6U7      -0.945900
     15 CAL          0.8840     0.5340     0.1960 ca         1 6U7       0.295000
     16 CAQ          1.7700    -0.4110     0.7740 ca         1 6U7      -0.103300
     17 CBC          1.2480    -1.6440     1.5120 c3         1 6U7      -0.048800
     18 CAP          3.1630    -0.2100     0.6810 ca         1 6U7      -0.107000
     19 CAM          1.4160     1.6500    -0.4840 ca         1 6U7      -0.092000
     20 CAN          2.8060     1.8420    -0.5730 ca         1 6U7      -0.100000
     21 CAO          3.6800     0.9100     0.0020 ca         1 6U7       0.086100
     22 OAR          5.0370     1.1250    -0.0880 os         1 6U7      -0.253200
     23 CAS          5.9450     0.1070    -0.2770 ca         1 6U7       0.134100
     24 CAT          7.1870     0.1750     0.3760 ca         1 6U7      -0.160000
     25 CAU          8.1380    -0.8440     0.1920 ca         1 6U7      -0.079500
     26 CAV          7.8480    -1.9290    -0.6550 ca         1 6U7      -0.143000
     27 CAW          6.6110    -1.9930    -1.3200 ca         1 6U7      -0.079500
     28 CAX          5.6610    -0.9740    -1.1350 ca         1 6U7      -0.160000
     29 H1          -8.0130     0.8240    -0.9890 h1         1 6U7       0.046033
     30 H2          -8.9620    -0.5080    -0.2970 h1         1 6U7       0.046033
     31 H3          -8.1010     0.6100     0.7800 h1         1 6U7       0.046033
     32 H4          -6.1360     1.8040     0.1200 ha         1 6U7       0.143000
     33 H5          -4.2580    -4.5600    -0.5610 h1         1 6U7       0.041700
     34 H6          -3.1240    -3.3870    -1.2610 h1         1 6U7       0.041700
     35 H7          -3.2120    -3.6030     0.5090 h1         1 6U7       0.041700
     36 H8          -2.3720    -1.4550    -0.0970 ha         1 6U7       0.111000
     37 H9          -2.3180     4.3230     0.6250 h5         1 6U7       0.046100
     38 H10         -0.7410    -0.6430     0.4840 hn         1 6U7       0.499000
     39 H11          0.7000    -2.3080     0.8330 hc         1 6U7       0.043700
     40 H12          2.0620    -2.2300     1.9530 hc         1 6U7       0.043700
     41 H13          0.5730    -1.3610     2.3290 hc         1 6U7       0.043700
     42 H14          3.8450    -0.9230     1.1380 ha         1 6U7       0.128000
     43 H15          0.7570     2.3650    -0.9630 ha         1 6U7       0.141000
     44 H16          3.2040     2.7070    -1.0980 ha         1 6U7       0.133000
     45 H17          7.4100     1.0160     1.0280 ha         1 6U7       0.126000
     46 H18          9.0980    -0.7930     0.7020 ha         1 6U7       0.112500
     47 H19          8.5840    -2.7170    -0.7980 ha         1 6U7       0.115000
     48 H20          6.3910    -2.8300    -1.9810 ha         1 6U7       0.112500
     49 H21          4.7110    -1.0230    -1.6610 ha         1 6U7       0.126000
     50 OBA         -6.8910    -0.7760    -0.2280 os         1 6U7      -0.317100
@<TRIPOS>BOND
     1     1     2 ar  
     2     1     5 ar  
     3     1    14 1   
     4     2     3 ar  
     5     2    12 ar  
     6     3     4 ar  
     7     3     8 ar  
     8     4    13 ar  
     9     5    13 ar  
    10     6    29 1   
    11     6    30 1   
    12     6    31 1   
    13     6    50 1   
    14     7     8 ar  
    15     7     9 ar  
    16     7    50 1   
    17     8    32 1   
    18     9    10 1   
    19     9    12 ar  
    20    10    11 1   
    21    11    33 1   
    22    11    34 1   
    23    11    35 1   
    24    12    36 1   
    25    13    37 1   
    26    14    15 1   
    27    14    38 1   
    28    15    16 ar  
    29    15    19 ar  
    30    16    17 1   
    31    16    18 ar  
    32    17    39 1   
    33    17    40 1   
    34    17    41 1   
    35    18    21 ar  
    36    18    42 1   
    37    19    20 ar  
    38    19    43 1   
    39    20    21 ar  
    40    20    44 1   
    41    21    22 1   
    42    22    23 1   
    43    23    24 ar  
    44    23    28 ar  
    45    24    25 ar  
    46    24    45 1   
    47    25    26 ar  
    48    25    46 1   
    49    26    27 ar  
    50    26    47 1   
    51    27    28 ar  
    52    27    48 1   
    53    28    49 1   
@<TRIPOS>SUBSTRUCTURE
     1 6U7         1 TEMP              0 ****  ****    0 ROOT
