@<TRIPOS>MOLECULE
6U8
   63    64     1     0     0
SMALL
No Charge or Current Charge


@<TRIPOS>ATOM
      1 C01         10.0050    -0.2520     2.0470 c3         1 6U8       0.145900
      2 O02          9.1730    -0.8180     1.0190 os         1 6U8      -0.322100
      3 C03          7.9830    -0.2320     0.6180 ca         1 6U8       0.110100
      4 C04          7.2260    -0.8580    -0.4020 ca         1 6U8       0.112100
      5 O05          7.7070    -2.0340    -0.9570 os         1 6U8      -0.322100
      6 C06          7.0080    -2.7410    -1.9960 c3         1 6U8       0.145900
      7 C07          6.0090    -0.2780    -0.8270 ca         1 6U8      -0.168000
      8 C08          5.5450     0.9170    -0.2450 ca         1 6U8      -0.079300
      9 C09          4.2290     1.5330    -0.7020 c3         1 6U8      -0.029100
     10 C10          3.0330     1.0230     0.1350 c3         1 6U8       0.171800
     11 N11          1.6880     1.4260    -0.3600 n3         1 6U8      -0.723600
     12 C12          1.4790     2.8990    -0.3460 c3         1 6U8       0.147100
     13 C13          0.6100     0.6740     0.3340 c3         1 6U8       0.171800
     14 C14         -0.7960     0.8120    -0.2960 c3         1 6U8      -0.083400
     15 C15         -1.8350    -0.1570     0.3510 c3         1 6U8      -0.073400
     16 C16         -3.3240    -0.1340    -0.2000 c3         1 6U8       0.079400
     17 C17         -3.7350     1.2820    -0.0400 c1         1 6U8       0.309900
     18 N18         -4.0090     2.4100     0.0830 n1         1 6U8      -0.462000
     19 C19         -3.3550    -0.5440    -1.7350 c3         1 6U8      -0.045700
     20 C20         -2.7640    -1.9510    -2.0310 c3         1 6U8      -0.093100
     21 C21         -4.7440    -0.4360    -2.4170 c3         1 6U8      -0.093100
     22 C22         -4.2660    -1.0840     0.6490 ca         1 6U8      -0.035300
     23 C23         -3.7040    -2.2550     1.2390 ca         1 6U8      -0.111000
     24 C24         -4.4580    -3.1500     2.0110 ca         1 6U8      -0.100000
     25 C27         -5.8170    -2.9230     2.2230 ca         1 6U8      -0.104000
     26 C30         -6.4200    -1.8040     1.6450 ca         1 6U8      -0.090000
     27 C31         -5.6810    -0.8940     0.8640 ca         1 6U8      -0.003900
     28 Br32        -6.7790     0.5260     0.1460 br         1 6U8      -0.086100
     29 C32          6.2990     1.5330     0.7690 ca         1 6U8      -0.106000
     30 C33          7.5100     0.9670     1.2000 ca         1 6U8      -0.169000
     31 H1          10.3420     0.7540     1.7670 h1         1 6U8       0.039033
     32 H2           9.4610    -0.1910     2.9990 h1         1 6U8       0.039033
     33 H3          10.8930    -0.8770     2.2030 h1         1 6U8       0.039033
     34 H4           7.5660    -3.6400    -2.2850 h1         1 6U8       0.038700
     35 H5           6.0130    -3.0540    -1.6530 h1         1 6U8       0.038700
     36 H6           6.8930    -2.1120    -2.8870 h1         1 6U8       0.038700
     37 H7           5.4100    -0.7420    -1.6060 ha         1 6U8       0.119000
     38 H8           4.2930     2.6250    -0.6330 hc         1 6U8       0.053700
     39 H9           4.0490     1.2990    -1.7580 hc         1 6U8       0.053700
     40 H10          3.0950    -0.0740     0.1440 h1         1 6U8       0.032700
     41 H11          3.1660     1.3550     1.1740 h1         1 6U8       0.032700
     42 H13          2.2510     3.4180    -0.9260 h1         1 6U8       0.032367
     43 H14          0.5160     3.1700    -0.7960 h1         1 6U8       0.032367
     44 H15          1.5010     3.2870     0.6810 h1         1 6U8       0.032367
     45 H16          0.8640    -0.3950     0.3290 h1         1 6U8       0.029200
     46 H17          0.5560     0.9820     1.3870 h1         1 6U8       0.029200
     47 H18         -1.1300     1.8490    -0.1880 hc         1 6U8       0.056200
     48 H19         -0.7100     0.6050    -1.3680 hc         1 6U8       0.056200
     49 H20         -1.3970    -1.1520     0.2490 hc         1 6U8       0.050700
     50 H21         -1.8610     0.0450     1.4300 hc         1 6U8       0.050700
     51 H24         -2.7210     0.1690    -2.2770 hc         1 6U8       0.058700
     52 H25         -2.8240    -2.1740    -3.1030 hc         1 6U8       0.040533
     53 H26         -1.7060    -2.0170    -1.7560 hc         1 6U8       0.040533
     54 H27         -3.3160    -2.7340    -1.4980 hc         1 6U8       0.040533
     55 H28         -5.1550     0.5770    -2.3380 hc         1 6U8       0.040533
     56 H29         -4.6640    -0.6630    -3.4870 hc         1 6U8       0.040533
     57 H30         -5.4560    -1.1470    -1.9820 hc         1 6U8       0.040533
     58 H31         -2.6630    -2.5210     1.1020 ha         1 6U8       0.116000
     59 H32         -3.9830    -4.0290     2.4430 ha         1 6U8       0.119000
     60 H33         -6.4040    -3.6170     2.8210 ha         1 6U8       0.121000
     61 H34         -7.4850    -1.6420     1.7980 ha         1 6U8       0.131000
     62 H35          5.9450     2.4540     1.2270 ha         1 6U8       0.112000
     63 H36          8.0660     1.4720     1.9850 ha         1 6U8       0.118000
@<TRIPOS>BOND
     1     1     2 1   
     2     1    31 1   
     3     1    32 1   
     4     1    33 1   
     5     2     3 1   
     6     3     4 ar  
     7     3    30 ar  
     8     4     5 1   
     9     4     7 ar  
    10     5     6 1   
    11     6    34 1   
    12     6    35 1   
    13     6    36 1   
    14     7     8 ar  
    15     7    37 1   
    16     8     9 1   
    17     8    29 ar  
    18     9    10 1   
    19     9    38 1   
    20     9    39 1   
    21    10    11 1   
    22    10    40 1   
    23    10    41 1   
    24    11    12 1   
    25    11    13 1   
    26    12    42 1   
    27    12    43 1   
    28    12    44 1   
    29    13    14 1   
    30    13    45 1   
    31    13    46 1   
    32    14    15 1   
    33    14    47 1   
    34    14    48 1   
    35    15    16 1   
    36    15    49 1   
    37    15    50 1   
    38    16    17 1   
    39    16    19 1   
    40    16    22 1   
    41    17    18 3   
    42    19    20 1   
    43    19    21 1   
    44    19    51 1   
    45    20    52 1   
    46    20    53 1   
    47    20    54 1   
    48    21    55 1   
    49    21    56 1   
    50    21    57 1   
    51    22    23 ar  
    52    22    27 ar  
    53    23    24 ar  
    54    23    58 1   
    55    24    25 ar  
    56    24    59 1   
    57    25    26 ar  
    58    25    60 1   
    59    26    27 ar  
    60    26    61 1   
    61    27    28 1   
    62    29    30 ar  
    63    29    62 1   
    64    30    63 1   
@<TRIPOS>SUBSTRUCTURE
     1 6U8         1 TEMP              0 ****  ****    0 ROOT
