@<TRIPOS>MOLECULE
6U8
   63    64     1     0     0
SMALL
abcg2


@<TRIPOS>ATOM
      1 C01         10.0060     0.0280     1.6580 c3         1 6U8       0.145900
      2 O02          9.1080    -0.6840     0.8330 os         1 6U8      -0.322100
      3 C03          7.9300    -0.1010     0.5300 ca         1 6U8       0.110100
      4 C04          7.0880    -0.8350    -0.3310 ca         1 6U8       0.112100
      5 O05          7.5700    -2.0260    -0.7370 os         1 6U8      -0.322100
      6 C06          6.7630    -2.8170    -1.5840 c3         1 6U8       0.145900
      7 C07          5.8620    -0.3090    -0.7020 ca         1 6U8      -0.168000
      8 C08          5.4390     0.9440    -0.2410 ca         1 6U8      -0.079300
      9 C09          4.0910     1.4760    -0.6410 c3         1 6U8      -0.029100
     10 C10          2.9750     0.8810     0.2180 c3         1 6U8       0.171800
     11 N11          1.6490     1.3040    -0.1990 n3         1 6U8      -0.723600
     12 C12          1.4350     2.7150     0.0550 c3         1 6U8       0.147100
     13 C13          0.6080     0.4920     0.4120 c3         1 6U8       0.171800
     14 C14         -0.7120     0.5620    -0.3490 c3         1 6U8      -0.083400
     15 C15         -1.7800    -0.2720     0.3530 c3         1 6U8      -0.073400
     16 C16         -3.2250    -0.1580    -0.2320 c3         1 6U8       0.079400
     17 C17         -3.5110     1.2780    -0.1040 c1         1 6U8       0.309900
     18 N18         -3.5700     2.4250    -0.0290 n1         1 6U8      -0.462000
     19 C19         -3.2370    -0.5030    -1.7610 c3         1 6U8      -0.045700
     20 C20         -2.7260    -1.9090    -2.0500 c3         1 6U8      -0.093100
     21 C21         -4.5950    -0.3010    -2.4220 c3         1 6U8      -0.093100
     22 C22         -4.2010    -1.0360     0.5690 ca         1 6U8      -0.035300
     23 C23         -3.7330    -2.2820     1.0060 ca         1 6U8      -0.111000
     24 C24         -4.5110    -3.1800     1.7140 ca         1 6U8      -0.100000
     25 C27         -5.8190    -2.8580     2.0270 ca         1 6U8      -0.104000
     26 C30         -6.3280    -1.6440     1.6090 ca         1 6U8      -0.090000
     27 C31         -5.5380    -0.7530     0.8840 ca         1 6U8      -0.003900
     28 BR32        -6.4530     0.8260     0.3700 br         1 6U8      -0.086100
     29 C32          6.2710     1.6510     0.6050 ca         1 6U8      -0.106000
     30 C33          7.5090     1.1350     0.9900 ca         1 6U8      -0.169000
     31 H1          10.2970     0.9840     1.2140 h1         1 6U8       0.039033
     32 H2           9.5910     0.2150     2.6520 h1         1 6U8       0.039033
     33 H3          10.8910    -0.5940     1.7620 h1         1 6U8       0.039033
     34 H4           7.3250    -3.7270    -1.7840 h1         1 6U8       0.038700
     35 H5           5.8150    -3.0860    -1.1110 h1         1 6U8       0.038700
     36 H6           6.5530    -2.3190    -2.5330 h1         1 6U8       0.038700
     37 H7           5.2110    -0.8610    -1.3680 ha         1 6U8       0.119000
     38 H8           4.1010     2.5640    -0.5560 hc         1 6U8       0.053700
     39 H9           3.8860     1.2420    -1.6900 hc         1 6U8       0.053700
     40 H10          3.0250    -0.2080     0.1330 h1         1 6U8       0.032700
     41 H11          3.1690     1.1200     1.2780 h1         1 6U8       0.032700
     42 H13          2.1510     3.3240    -0.4950 h1         1 6U8       0.032367
     43 H14          0.4450     3.0240    -0.2780 h1         1 6U8       0.032367
     44 H15          1.5230     2.9720     1.1230 h1         1 6U8       0.032367
     45 H16          0.9450    -0.5470     0.4170 h1         1 6U8       0.029200
     46 H17          0.4440     0.7700     1.4670 h1         1 6U8       0.029200
     47 H18         -1.0380     1.5990    -0.4400 hc         1 6U8       0.056200
     48 H19         -0.5410     0.1950    -1.3640 hc         1 6U8       0.056200
     49 H20         -1.4600    -1.3110     0.3220 hc         1 6U8       0.050700
     50 H21         -1.8290     0.0020     1.4100 hc         1 6U8       0.050700
     51 H24         -2.5430     0.2030    -2.2260 hc         1 6U8       0.058700
     52 H25         -2.6800    -2.0520    -3.1300 hc         1 6U8       0.040533
     53 H26         -1.7230    -2.0890    -1.6630 hc         1 6U8       0.040533
     54 H27         -3.3900    -2.6750    -1.6490 hc         1 6U8       0.040533
     55 H28         -4.9570     0.7220    -2.3270 hc         1 6U8       0.040533
     56 H29         -4.5060    -0.5140    -3.4880 hc         1 6U8       0.040533
     57 H30         -5.3510    -0.9760    -2.0190 hc         1 6U8       0.040533
     58 H31         -2.7200    -2.5820     0.7900 ha         1 6U8       0.116000
     59 H32         -4.0850    -4.1260     2.0200 ha         1 6U8       0.119000
     60 H33         -6.4450    -3.5390     2.5880 ha         1 6U8       0.121000
     61 H34         -7.3520    -1.3890     1.8450 ha         1 6U8       0.131000
     62 H35          5.9710     2.6230     0.9750 ha         1 6U8       0.112000
     63 H36          8.1340     1.7200     1.6510 ha         1 6U8       0.118000
@<TRIPOS>BOND
     1     1     2 1   
     2     1    31 1   
     3     1    32 1   
     4     1    33 1   
     5     2     3 1   
     6     3     4 ar  
     7     3    30 ar  
     8     4     5 1   
     9     4     7 ar  
    10     5     6 1   
    11     6    34 1   
    12     6    35 1   
    13     6    36 1   
    14     7     8 ar  
    15     7    37 1   
    16     8     9 1   
    17     8    29 ar  
    18     9    10 1   
    19     9    38 1   
    20     9    39 1   
    21    10    11 1   
    22    10    40 1   
    23    10    41 1   
    24    11    12 1   
    25    11    13 1   
    26    12    42 1   
    27    12    43 1   
    28    12    44 1   
    29    13    14 1   
    30    13    45 1   
    31    13    46 1   
    32    14    15 1   
    33    14    47 1   
    34    14    48 1   
    35    15    16 1   
    36    15    49 1   
    37    15    50 1   
    38    16    17 1   
    39    16    19 1   
    40    16    22 1   
    41    17    18 3   
    42    19    20 1   
    43    19    21 1   
    44    19    51 1   
    45    20    52 1   
    46    20    53 1   
    47    20    54 1   
    48    21    55 1   
    49    21    56 1   
    50    21    57 1   
    51    22    23 ar  
    52    22    27 ar  
    53    23    24 ar  
    54    23    58 1   
    55    24    25 ar  
    56    24    59 1   
    57    25    26 ar  
    58    25    60 1   
    59    26    27 ar  
    60    26    61 1   
    61    27    28 1   
    62    29    30 ar  
    63    29    62 1   
    64    30    63 1   
@<TRIPOS>SUBSTRUCTURE
     1 6U8         1 TEMP              0 ****  ****    0 ROOT
