@<TRIPOS>MOLECULE
6U9
   56    57     1     0     0
SMALL
abcg2


@<TRIPOS>ATOM
      1 C13          1.7410    -3.7570    -1.7040 c3         1 6U9      -0.066900
      2 C12          0.9480    -2.6360    -1.1060 c2         1 6U9       0.193800
      3 C10         -2.7500    -2.3830    -1.0760 c3         1 6U9      -0.064900
      4 C01         -6.8950    -1.8180     0.8440 c3         1 6U9       0.143900
      5 O02         -5.6530    -1.3240     1.2720 os         1 6U9      -0.447000
      6 C03         -5.4670     0.0250     0.9390 c3         1 6U9       0.151600
      7 C04         -4.0920     0.4680     1.3630 c3         1 6U9       0.169600
      8 O05         -3.1470    -0.2820     0.6020 os         1 6U9      -0.447100
      9 C06         -1.8550    -0.0320     0.7720 c          1 6U9       0.619300
     10 O07         -1.4560     0.8380     1.5200 o          1 6U9      -0.501000
     11 C08         -0.9570    -0.8840    -0.0060 ce         1 6U9      -0.266400
     12 C09         -1.3510    -1.9280    -0.7770 c2         1 6U9       0.199800
     13 N11         -0.3930    -2.7060    -1.3730 nu         1 6U9      -0.692000
     14 C14          1.4190    -1.6120    -0.3530 ce         1 6U9      -0.263400
     15 C15          0.5030    -0.4920     0.0910 c6         1 6U9       0.123000
     16 C16          0.7600     0.7680    -0.7190 ca         1 6U9      -0.076300
     17 C17          1.1270     1.9510    -0.0960 ca         1 6U9      -0.015000
     18 C18          1.3650     3.0820    -0.8620 ca         1 6U9      -0.185200
     19 C19          1.2410     3.0770    -2.2440 ca         1 6U9      -0.050000
     20 C20          0.8680     1.8940    -2.8600 ca         1 6U9      -0.131000
     21 C21          0.6300     0.7540    -2.1050 ca         1 6U9      -0.062000
     22 N22          1.7630     4.3120    -0.1930 no         1 6U9       0.694200
     23 O23          1.9040     4.2900     1.0070 o          1 6U9      -0.404000
     24 O24          1.9370     5.2980    -0.8710 o          1 6U9      -0.404000
     25 C25          2.8410    -1.5230    -0.0130 c          1 6U9       0.626300
     26 O26          3.7060    -2.3110    -0.3380 o          1 6U9      -0.518000
     27 O27          3.0930    -0.4350     0.7100 os         1 6U9      -0.449100
     28 C28          4.4430    -0.1410     1.1150 c3         1 6U9       0.181300
     29 C29          4.5160     1.3620     1.2930 c3         1 6U9      -0.105600
     30 C30          4.7800    -0.8910     2.3910 c3         1 6U9      -0.105600
     31 H1           1.0960    -4.4190    -2.2780 hc         1 6U9       0.065367
     32 H2           2.5200    -3.3830    -2.3640 hc         1 6U9       0.065367
     33 H3           2.2280    -4.3510    -0.9330 hc         1 6U9       0.065367
     34 H5          -3.3320    -1.5950    -1.5490 hc         1 6U9       0.064033
     35 H6          -2.7340    -3.2390    -1.7480 hc         1 6U9       0.064033
     36 H7          -3.2790    -2.6780    -0.1730 hc         1 6U9       0.064033
     37 H8          -7.7340    -1.2920     1.3140 h1         1 6U9       0.029367
     38 H9          -7.0160    -1.7380    -0.2430 h1         1 6U9       0.029367
     39 H10         -6.9530    -2.8710     1.1180 h1         1 6U9       0.029367
     40 H11         -5.5960     0.1900    -0.1400 h1         1 6U9       0.032700
     41 H12         -6.1990     0.6690     1.4480 h1         1 6U9       0.032700
     42 H13         -3.9850     1.5370     1.1690 h1         1 6U9       0.060700
     43 H14         -3.9410     0.3000     2.4320 h1         1 6U9       0.060700
     44 H17         -0.7110    -3.4800    -1.9330 hn         1 6U9       0.500000
     45 H20          0.7190    -0.2540     1.1340 hc         1 6U9       0.095700
     46 H21          1.2300     1.9790     0.9790 ha         1 6U9       0.162000
     47 H22          1.4310     3.9620    -2.8330 ha         1 6U9       0.147000
     48 H23          0.7650     1.8630    -3.9360 ha         1 6U9       0.122000
     49 H24          0.3430    -0.1600    -2.6110 ha         1 6U9       0.117000
     50 H25          5.1270    -0.4450     0.3200 h1         1 6U9       0.059700
     51 H26          3.8440     1.7030     2.0830 hc         1 6U9       0.047367
     52 H27          5.5300     1.6470     1.5690 hc         1 6U9       0.047367
     53 H28          4.2580     1.8850     0.3720 hc         1 6U9       0.047367
     54 H29          5.7960    -0.6480     2.7030 hc         1 6U9       0.047367
     55 H30          4.1050    -0.6060     3.2010 hc         1 6U9       0.047367
     56 H31          4.7240    -1.9700     2.2560 hc         1 6U9       0.047367
@<TRIPOS>BOND
     1     1     2 1   
     2     1    31 1   
     3     1    32 1   
     4     1    33 1   
     5     2    13 1   
     6     2    14 2   
     7     3    12 1   
     8     3    34 1   
     9     3    35 1   
    10     3    36 1   
    11     4     5 1   
    12     4    37 1   
    13     4    38 1   
    14     4    39 1   
    15     5     6 1   
    16     6     7 1   
    17     6    40 1   
    18     6    41 1   
    19     7     8 1   
    20     7    42 1   
    21     7    43 1   
    22     8     9 1   
    23     9    10 2   
    24     9    11 1   
    25    11    12 2   
    26    11    15 1   
    27    12    13 1   
    28    13    44 1   
    29    14    15 1   
    30    14    25 1   
    31    15    16 1   
    32    15    45 1   
    33    16    17 ar  
    34    16    21 ar  
    35    17    18 ar  
    36    17    46 1   
    37    18    19 ar  
    38    18    22 1   
    39    19    20 ar  
    40    19    47 1   
    41    20    21 ar  
    42    20    48 1   
    43    21    49 1   
    44    22    23 1   
    45    22    24 1   
    46    25    26 2   
    47    25    27 1   
    48    27    28 1   
    49    28    29 1   
    50    28    30 1   
    51    28    50 1   
    52    29    51 1   
    53    29    52 1   
    54    29    53 1   
    55    30    54 1   
    56    30    55 1   
    57    30    56 1   
@<TRIPOS>SUBSTRUCTURE
     1 6U9         1 TEMP              0 ****  ****    0 ROOT
