@<TRIPOS>MOLECULE
6U9
   56    57     1     0     0
SMALL
No Charge or Current Charge


@<TRIPOS>ATOM
      1 C13          1.7910    -3.8300    -1.7610 c3         1 6U9      -0.066900
      2 C12          1.0070    -2.6800    -1.1510 c2         1 6U9       0.193800
      3 C10         -2.7540    -2.4830    -1.1250 c3         1 6U9      -0.064900
      4 C01         -7.0790    -1.8600     1.1930 c3         1 6U9       0.143900
      5 O02         -5.8070    -1.2450     1.4560 os         1 6U9      -0.447000
      6 C03         -5.6170     0.0330     0.8150 c3         1 6U9       0.151600
      7 C04         -4.2070     0.5640     1.1610 c3         1 6U9       0.169600
      8 O05         -3.2290    -0.2530     0.4840 os         1 6U9      -0.447100
      9 C06         -1.9060     0.0410     0.6550 c          1 6U9       0.619300
     10 O07         -1.5190     0.9690     1.3530 o          1 6U9      -0.501000
     11 C08         -0.9740    -0.8950    -0.0770 ce         1 6U9      -0.266400
     12 C09         -1.3550    -1.9700    -0.8170 c2         1 6U9       0.199800
     13 N11         -0.3610    -2.7650    -1.3770 nu         1 6U9      -0.692000
     14 C14          1.4780    -1.6360    -0.4290 ce         1 6U9      -0.263400
     15 C15          0.5180    -0.5240     0.0520 c6         1 6U9       0.123000
     16 C16          0.7870     0.7650    -0.7430 ca         1 6U9      -0.076300
     17 C17          1.2120     1.9360    -0.0830 ca         1 6U9      -0.015000
     18 C18          1.4740     3.1210    -0.8100 ca         1 6U9      -0.185200
     19 C19          1.2970     3.1200    -2.2130 ca         1 6U9      -0.050000
     20 C20          0.8690     1.9540    -2.8700 ca         1 6U9      -0.131000
     21 C21          0.6160     0.7820    -2.1400 ca         1 6U9      -0.062000
     22 N22          1.9340     4.3570    -0.1010 no         1 6U9       0.694200
     23 O23          2.1060     4.3000     1.1240 o          1 6U9      -0.404000
     24 O24          2.1330     5.3780    -0.7730 o          1 6U9      -0.404000
     25 C25          2.9390    -1.4750    -0.0820 c          1 6U9       0.626300
     26 O26          3.8230    -2.2450    -0.4300 o          1 6U9      -0.518000
     27 O27          3.1760    -0.3500     0.6690 os         1 6U9      -0.449100
     28 C28          4.5100    -0.0620     1.1210 c3         1 6U9       0.181300
     29 C29          4.5390     1.4370     1.4690 c3         1 6U9      -0.105600
     30 C30          4.8190    -0.9570     2.3420 c3         1 6U9      -0.105600
     31 H1           1.1560    -4.5310    -2.3150 hc         1 6U9       0.065367
     32 H2           2.5460    -3.4590    -2.4630 hc         1 6U9       0.065367
     33 H3           2.3050    -4.4070    -0.9830 hc         1 6U9       0.065367
     34 H5          -3.3430    -1.7220    -1.6490 hc         1 6U9       0.064033
     35 H6          -2.7500    -3.3750    -1.7620 hc         1 6U9       0.064033
     36 H7          -3.2850    -2.7520    -0.2050 hc         1 6U9       0.064033
     37 H8          -7.9010    -1.2210     1.5410 h1         1 6U9       0.029367
     38 H9          -7.2100    -2.0410     0.1180 h1         1 6U9       0.029367
     39 H10         -7.1520    -2.8240     1.7120 h1         1 6U9       0.029367
     40 H11         -5.7160    -0.0550    -0.2750 h1         1 6U9       0.032700
     41 H12         -6.3650     0.7530     1.1700 h1         1 6U9       0.032700
     42 H13         -4.1300     1.6080     0.8310 h1         1 6U9       0.060700
     43 H14         -4.0640     0.5360     2.2490 h1         1 6U9       0.060700
     44 H17         -0.6770    -3.5490    -1.9470 hn         1 6U9       0.500000
     45 H20          0.7180    -0.3510     1.1200 hc         1 6U9       0.095700
     46 H21          1.3410     1.9150     0.9980 ha         1 6U9       0.162000
     47 H22          1.4890     4.0160    -2.8020 ha         1 6U9       0.147000
     48 H23          0.7350     1.9590    -3.9490 ha         1 6U9       0.122000
     49 H24          0.2880    -0.1150    -2.6610 ha         1 6U9       0.117000
     50 H25          5.2480    -0.2460     0.3280 h1         1 6U9       0.059700
     51 H26          3.8040     1.6730     2.2490 hc         1 6U9       0.047367
     52 H27          5.5320     1.7290     1.8320 hc         1 6U9       0.047367
     53 H28          4.3100     2.0410     0.5830 hc         1 6U9       0.047367
     54 H29          5.8010    -0.7040     2.7610 hc         1 6U9       0.047367
     55 H30          4.0660    -0.8180     3.1260 hc         1 6U9       0.047367
     56 H31          4.8390    -2.0160     2.0620 hc         1 6U9       0.047367
@<TRIPOS>BOND
     1     1     2 1   
     2     1    31 1   
     3     1    32 1   
     4     1    33 1   
     5     2    13 1   
     6     2    14 2   
     7     3    12 1   
     8     3    34 1   
     9     3    35 1   
    10     3    36 1   
    11     4     5 1   
    12     4    37 1   
    13     4    38 1   
    14     4    39 1   
    15     5     6 1   
    16     6     7 1   
    17     6    40 1   
    18     6    41 1   
    19     7     8 1   
    20     7    42 1   
    21     7    43 1   
    22     8     9 1   
    23     9    10 2   
    24     9    11 1   
    25    11    12 2   
    26    11    15 1   
    27    12    13 1   
    28    13    44 1   
    29    14    15 1   
    30    14    25 1   
    31    15    16 1   
    32    15    45 1   
    33    16    17 ar  
    34    16    21 ar  
    35    17    18 ar  
    36    17    46 1   
    37    18    19 ar  
    38    18    22 1   
    39    19    20 ar  
    40    19    47 1   
    41    20    21 ar  
    42    20    48 1   
    43    21    49 1   
    44    22    23 1   
    45    22    24 1   
    46    25    26 2   
    47    25    27 1   
    48    27    28 1   
    49    28    29 1   
    50    28    30 1   
    51    28    50 1   
    52    29    51 1   
    53    29    52 1   
    54    29    53 1   
    55    30    54 1   
    56    30    55 1   
    57    30    56 1   
@<TRIPOS>SUBSTRUCTURE
     1 6U9         1 TEMP              0 ****  ****    0 ROOT
