@<TRIPOS>MOLECULE
6UA
   14    14     1     0     0
SMALL
bcc


@<TRIPOS>ATOM
      1 O2           0.4180    -2.5660     0.0670 o          1 6UA      -0.580500
      2 C2           0.1770    -1.3750     0.0510 c          1 6UA       0.874900
      3 N3           1.2520    -0.4820     0.0280 ns         1 6UA      -0.634500
      4 C4           1.1770     0.8740     0.0150 c          1 6UA       0.727500
      5 O4           2.1600     1.5820    -0.0120 o          1 6UA      -0.599500
      6 N1          -1.0920    -0.8900     0.0510 ne         1 6UA      -0.760100
      7 C6          -1.2970     0.3950     0.0390 c2         1 6UA       0.727200
      8 N6          -2.5350     0.8550     0.0300 nv         1 6UA      -0.917800
      9 C5          -0.2150     1.4310     0.0400 c6         1 6UA      -0.285700
     10 H1           2.1760    -0.8970     0.0200 hn         1 6UA       0.340500
     11 H2          -3.3140     0.2160     0.0380 hn         1 6UA       0.452800
     12 H3          -2.7340     1.8410     0.0280 hn         1 6UA       0.452800
     13 H4          -0.3170     2.0610     0.9280 hc         1 6UA       0.100700
     14 H5          -0.3380     2.0980    -0.8170 hc         1 6UA       0.100700
@<TRIPOS>BOND
     1     1     2 2   
     2     2     3 1   
     3     2     6 1   
     4     3     4 1   
     5     3    10 1   
     6     4     5 2   
     7     4     9 1   
     8     6     7 2   
     9     7     8 1   
    10     7     9 1   
    11     8    11 1   
    12     8    12 1   
    13     9    13 1   
    14     9    14 1   
@<TRIPOS>SUBSTRUCTURE
     1 6UA         1 TEMP              0 ****  ****    0 ROOT
