@<TRIPOS>MOLECULE
6UA
   14    14     1     0     0
SMALL
No Charge or Current Charge


@<TRIPOS>ATOM
      1 O2           0.3580    -2.4940     0.5670 o          1 6UA      -0.505000
      2 C2           0.1700    -1.3330     0.2600 c          1 6UA       0.732400
      3 N3           1.1980    -0.4520     0.1240 ns         1 6UA      -0.500500
      4 C4           1.1080     0.8650    -0.1750 c          1 6UA       0.585000
      5 O4           1.9810     1.4560    -0.7870 o          1 6UA      -0.524000
      6 N1          -1.0760    -0.7920    -0.0570 ne         1 6UA      -0.760100
      7 C6          -1.2220     0.4710    -0.1490 c2         1 6UA       0.727200
      8 N6          -2.4720     0.8990    -0.3970 nv         1 6UA      -1.028200
      9 C5          -0.2050     1.4810     0.2020 c6         1 6UA      -0.285700
     10 H1           2.1180    -0.8610     0.0920 hn         1 6UA       0.340500
     11 H2          -3.1330     0.1380    -0.2930 hn         1 6UA       0.508000
     12 H3          -2.7280     1.7380     0.1110 hn         1 6UA       0.508000
     13 H4          -0.2350     1.5740     1.2940 hc         1 6UA       0.100700
     14 H5          -0.3440     2.4530    -0.2850 hc         1 6UA       0.100700
@<TRIPOS>BOND
     1     1     2 2   
     2     2     3 1   
     3     2     6 1   
     4     3     4 1   
     5     3    10 1   
     6     4     5 2   
     7     4     9 1   
     8     6     7 2   
     9     7     8 1   
    10     7     9 1   
    11     8    11 1   
    12     8    12 1   
    13     9    13 1   
    14     9    14 1   
@<TRIPOS>SUBSTRUCTURE
     1 6UA         1 TEMP              0 ****  ****    0 ROOT
