@<TRIPOS>MOLECULE
6UB
   53    54     1     0     0
SMALL
bcc


@<TRIPOS>ATOM
      1 CAA         -2.2110    -4.9910     1.6190 c3         1 6UB      -0.098100
      2 CAL         -0.8660    -4.3470     1.3840 c3         1 6UB       0.146400
      3 OAS         -1.0900    -2.9570     1.1200 os         1 6UB      -0.447900
      4 CAV         -0.0350    -2.1810     0.8850 c          1 6UB       0.664300
      5 OAF          1.1020    -2.6000     0.9260 o          1 6UB      -0.536000
      6 CAY         -0.3560    -0.7850     0.5960 ce         1 6UB      -0.271400
      7 CAW         -1.6070    -0.3000     0.3880 c2         1 6UB       0.155800
      8 NAP         -1.7890     1.0400     0.2090 nu         1 6UB      -0.631800
      9 CAT         -0.8120     1.9750     0.4100 c2         1 6UB       0.201800
     10 CAX          0.4680     1.5750     0.6210 ce         1 6UB      -0.276400
     11 CBB          0.8580     0.1160     0.4730 c6         1 6UB       0.129000
     12 CBA          1.5660    -0.1210    -0.8540 ca         1 6UB      -0.051300
     13 CAK          0.8630     0.1220    -2.0350 ca         1 6UB      -0.121000
     14 CAI          1.4290    -0.0610    -3.2850 ca         1 6UB      -0.139000
     15 CAH          2.7400    -0.5040    -3.3850 ca         1 6UB      -0.124000
     16 CAJ          3.4660    -0.7560    -2.2330 ca         1 6UB      -0.132000
     17 CAZ          2.8790    -0.5650    -0.9870 ca         1 6UB       0.066400
     18 CLAG         3.8710    -0.9030     0.3970 cl         1 6UB      -0.104400
     19 CAU          1.5120     2.5490     0.9320 c          1 6UB       0.669300
     20 OAE          1.3620     3.7370     1.1360 o          1 6UB      -0.571000
     21 OAQ          2.7110     1.9720     0.9750 os         1 6UB      -0.405900
     22 CAB          3.8350     2.7860     1.2760 c3         1 6UB       0.131700
     23 CAC         -1.3190     3.3850     0.3850 c3         1 6UB      -0.069900
     24 C24         -2.9040    -1.1010     0.3690 c3         1 6UB       0.167600
     25 O25         -3.9890    -0.3320    -0.0600 os         1 6UB      -0.408600
     26 C26         -4.1910    -0.2910    -1.4610 c3         1 6UB       0.129400
     27 C27         -4.9130     0.9960    -1.7940 c3         1 6UB       0.142800
     28 N28         -4.0740     2.1440    -1.4770 n8         1 6UB      -0.910800
     29 H1          -2.0700    -6.0520     1.8200 hc         1 6UB       0.044033
     30 H2          -2.7210    -4.5520     2.4770 hc         1 6UB       0.044033
     31 H3          -2.8570    -4.8980     0.7460 hc         1 6UB       0.044033
     32 H4          -0.2240    -4.4570     2.2610 h1         1 6UB       0.049700
     33 H5          -0.3560    -4.8090     0.5360 h1         1 6UB       0.049700
     34 H6          -2.7140     1.3760    -0.0680 hn         1 6UB       0.494800
     35 H9           1.5480    -0.1430     1.2750 hc         1 6UB       0.094700
     36 H10         -0.1620     0.4680    -1.9710 ha         1 6UB       0.123000
     37 H11          0.8490     0.1420    -4.1760 ha         1 6UB       0.126000
     38 H12          3.2010    -0.6550    -4.3520 ha         1 6UB       0.130000
     39 H13          4.4890    -1.1010    -2.3000 ha         1 6UB       0.142000
     40 H14          3.7540     3.2410     2.2630 h1         1 6UB       0.044367
     41 H15          4.6940     2.1200     1.2580 h1         1 6UB       0.044367
     42 H16          3.9760     3.5720     0.5330 h1         1 6UB       0.044367
     43 H17         -2.3320     3.4120    -0.0130 hc         1 6UB       0.064700
     44 H18         -1.3440     3.8070     1.3890 hc         1 6UB       0.064700
     45 H19         -0.6920     4.0300    -0.2230 hc         1 6UB       0.064700
     46 H20         -2.7840    -1.9960    -0.2460 h1         1 6UB       0.080700
     47 H21         -3.1240    -1.4340     1.3850 h1         1 6UB       0.080700
     48 H22         -3.2380    -0.3300    -2.0070 h1         1 6UB       0.036200
     49 H23         -4.7820    -1.1550    -1.7860 h1         1 6UB       0.036200
     50 H24         -5.2240     0.9570    -2.8440 h1         1 6UB       0.046200
     51 H25         -5.8270     1.0550    -1.2000 h1         1 6UB       0.046200
     52 H26         -3.4200     2.3120    -2.2310 hn         1 6UB       0.348800
     53 H27         -4.6340     2.9820    -1.4020 hn         1 6UB       0.348800
@<TRIPOS>BOND
     1     1     2 1   
     2     1    29 1   
     3     1    30 1   
     4     1    31 1   
     5     2     3 1   
     6     2    32 1   
     7     2    33 1   
     8     3     4 1   
     9     4     5 2   
    10     4     6 1   
    11     6     7 2   
    12     6    11 1   
    13     7     8 1   
    14     7    24 1   
    15     8     9 1   
    16     8    34 1   
    17     9    10 2   
    18     9    23 1   
    19    10    11 1   
    20    10    19 1   
    21    11    12 1   
    22    11    35 1   
    23    12    13 ar  
    24    12    17 ar  
    25    13    14 ar  
    26    13    36 1   
    27    14    15 ar  
    28    14    37 1   
    29    15    16 ar  
    30    15    38 1   
    31    16    17 ar  
    32    16    39 1   
    33    17    18 1   
    34    19    20 2   
    35    19    21 1   
    36    21    22 1   
    37    22    40 1   
    38    22    41 1   
    39    22    42 1   
    40    23    43 1   
    41    23    44 1   
    42    23    45 1   
    43    24    25 1   
    44    24    46 1   
    45    24    47 1   
    46    25    26 1   
    47    26    27 1   
    48    26    48 1   
    49    26    49 1   
    50    27    28 1   
    51    27    50 1   
    52    27    51 1   
    53    28    52 1   
    54    28    53 1   
@<TRIPOS>SUBSTRUCTURE
     1 6UB         1 TEMP              0 ****  ****    0 ROOT
