@<TRIPOS>MOLECULE
6UB
   53    54     1     0     0
SMALL
No Charge or Current Charge


@<TRIPOS>ATOM
      1 CAA         -2.2270    -5.1320     1.5600 c3         1 6UB      -0.098100
      2 CAL         -0.8550    -4.4610     1.3940 c3         1 6UB       0.169600
      3 OAS         -1.0910    -3.0760     1.0930 os         1 6UB      -0.471100
      4 CAV         -0.0110    -2.2610     0.8900 c          1 6UB       0.615300
      5 OAF          1.1410    -2.6560     0.9910 o          1 6UB      -0.487000
      6 CAY         -0.3830    -0.8220     0.6160 ce         1 6UB      -0.271400
      7 CAW         -1.6540    -0.3610     0.4540 c2         1 6UB       0.155800
      8 NAP         -1.8240     1.0150     0.3010 nu         1 6UB      -0.687000
      9 CAT         -0.8720     2.0050     0.4800 c2         1 6UB       0.201800
     10 CAX          0.4250     1.6330     0.6070 ce         1 6UB      -0.276400
     11 CBB          0.8250     0.1390     0.5000 c6         1 6UB       0.129000
     12 CBA          1.5470    -0.1100    -0.8440 ca         1 6UB      -0.051300
     13 CAK          0.8420     0.1440    -2.0410 ca         1 6UB      -0.103000
     14 CAI          1.4450    -0.0630    -3.2930 ca         1 6UB      -0.121000
     15 CAH          2.7650    -0.5280    -3.3680 ca         1 6UB      -0.106000
     16 CAJ          3.4800    -0.7870    -2.1890 ca         1 6UB      -0.114000
     17 CAZ          2.8850    -0.5830    -0.9310 ca         1 6UB       0.158000
     18 ClAG         3.8700    -0.9410     0.4930 cl         1 6UB      -0.196000
     19 CAU          1.5370     2.6320     0.8150 c          1 6UB       0.620300
     20 OAE          1.3880     3.8460     0.8460 o          1 6UB      -0.522000
     21 OAQ          2.7590     2.0340     0.9750 os         1 6UB      -0.429100
     22 CAB          3.9130     2.8700     1.1660 c3         1 6UB       0.154900
     23 CAC         -1.4570     3.4060     0.5250 c3         1 6UB      -0.069900
     24 C24         -2.9760    -1.1570     0.4450 c3         1 6UB       0.190800
     25 O25         -4.0600    -0.3350    -0.0450 os         1 6UB      -0.455000
     26 C26         -4.1790    -0.2690    -1.4820 c3         1 6UB       0.152600
     27 C27         -4.8370     1.0860    -1.8320 c3         1 6UB       0.142800
     28 N28         -3.9730     2.2430    -1.4720 n8         1 6UB      -1.021200
     29 H1          -2.1040    -6.1960     1.7920 hc         1 6UB       0.044033
     30 H2          -2.7900    -4.6640     2.3760 hc         1 6UB       0.044033
     31 H3          -2.8120    -5.0470     0.6360 hc         1 6UB       0.044033
     32 H4          -0.2790    -4.5690     2.3230 h1         1 6UB       0.049700
     33 H5          -0.3020    -4.9510     0.5810 h1         1 6UB       0.049700
     34 H6          -2.7560     1.3120    -0.0380 hn         1 6UB       0.550000
     35 H9           1.4870    -0.0830     1.3480 hc         1 6UB       0.094700
     36 H10         -0.1820     0.5050    -2.0030 ha         1 6UB       0.105000
     37 H11          0.8860     0.1390    -4.2040 ha         1 6UB       0.108000
     38 H12          3.2330    -0.6890    -4.3370 ha         1 6UB       0.112000
     39 H13          4.5030    -1.1490    -2.2470 ha         1 6UB       0.124000
     40 H14          3.8060     3.4840     2.0710 h1         1 6UB       0.044367
     41 H15          4.8140     2.2550     1.2770 h1         1 6UB       0.044367
     42 H16          4.0590     3.5370     0.3070 h1         1 6UB       0.044367
     43 H17         -2.5520     3.4040     0.5540 hc         1 6UB       0.064700
     44 H18         -1.1290     3.9400     1.4230 hc         1 6UB       0.064700
     45 H19         -1.1470     3.9880    -0.3510 hc         1 6UB       0.064700
     46 H20         -2.8760    -2.0580    -0.1740 h1         1 6UB       0.080700
     47 H21         -3.1900    -1.4830     1.4710 h1         1 6UB       0.080700
     48 H22         -3.1980    -0.3270    -1.9720 h1         1 6UB       0.036200
     49 H23         -4.7990    -1.0940    -1.8550 h1         1 6UB       0.036200
     50 H24         -5.0590     1.1250    -2.9070 h1         1 6UB       0.046200
     51 H25         -5.7870     1.1690    -1.2850 h1         1 6UB       0.046200
     52 H26         -3.2260     2.3250    -2.1730 hn         1 6UB       0.404000
     53 H27         -4.5110     3.1090    -1.6130 hn         1 6UB       0.404000
@<TRIPOS>BOND
     1     1     2 1   
     2     1    29 1   
     3     1    30 1   
     4     1    31 1   
     5     2     3 1   
     6     2    32 1   
     7     2    33 1   
     8     3     4 1   
     9     4     5 2   
    10     4     6 1   
    11     6     7 2   
    12     6    11 1   
    13     7     8 1   
    14     7    24 1   
    15     8     9 1   
    16     8    34 1   
    17     9    10 2   
    18     9    23 1   
    19    10    11 1   
    20    10    19 1   
    21    11    12 1   
    22    11    35 1   
    23    12    13 ar  
    24    12    17 ar  
    25    13    14 ar  
    26    13    36 1   
    27    14    15 ar  
    28    14    37 1   
    29    15    16 ar  
    30    15    38 1   
    31    16    17 ar  
    32    16    39 1   
    33    17    18 1   
    34    19    20 2   
    35    19    21 1   
    36    21    22 1   
    37    22    40 1   
    38    22    41 1   
    39    22    42 1   
    40    23    43 1   
    41    23    44 1   
    42    23    45 1   
    43    24    25 1   
    44    24    46 1   
    45    24    47 1   
    46    25    26 1   
    47    26    27 1   
    48    26    48 1   
    49    26    49 1   
    50    27    28 1   
    51    27    50 1   
    52    27    51 1   
    53    28    52 1   
    54    28    53 1   
@<TRIPOS>SUBSTRUCTURE
     1 6UB         1 TEMP              0 ****  ****    0 ROOT
