@<TRIPOS>MOLECULE
6UC
   59    60     1     0     0
SMALL
No Charge or Current Charge


@<TRIPOS>ATOM
      1 CAA         -1.5610     5.3840     1.2320 c3         1 6UC      -0.098100
      2 CAL         -0.3920     4.4030     1.4070 c3         1 6UC       0.169600
      3 OAS         -0.8130     3.1380     0.8710 os         1 6UC      -0.472100
      4 CAV          0.0620     2.0870     0.9150 c          1 6UC       0.613300
      5 OAF          1.1850     2.1860     1.3870 o          1 6UC      -0.485000
      6 CAY         -0.4850     0.8170     0.3080 ce         1 6UC      -0.272400
      7 CAW         -1.7700     0.6440    -0.1050 c2         1 6UC       0.156800
      8 NAP         -2.1250    -0.5990    -0.6250 nu         1 6UC      -0.679000
      9 CAT         -1.3400    -1.7360    -0.7160 c2         1 6UC       0.200800
     10 CAX         -0.0520    -1.6670    -0.3020 ce         1 6UC      -0.275400
     11 CBB          0.5630    -0.3130     0.1410 c6         1 6UC       0.130000
     12 CBA          1.6070     0.1330    -0.9110 ca         1 6UC      -0.039300
     13 CAK          1.1600     0.3500    -2.2340 ca         1 6UC      -0.107000
     14 CAI          2.0510     0.7550    -3.2410 ca         1 6UC      -0.108000
     15 CAH          3.4060     0.9510    -2.9420 ca         1 6UC      -0.113000
     16 CAJ          3.8680     0.7430    -1.6330 ca         1 6UC      -0.098000
     17 CAZ          2.9830     0.3370    -0.6170 ca         1 6UC       0.021100
     18 BrAG         3.7340     0.0880     1.1390 br         1 6UC      -0.095100
     19 CAU          0.8560    -2.8730    -0.2900 c          1 6UC       0.619300
     20 OAE          0.5300    -3.9940    -0.6590 o          1 6UC      -0.523000
     21 OAQ          2.0870    -2.6010     0.2420 os         1 6UC      -0.426100
     22 CAB          3.0510    -3.6660     0.3210 c3         1 6UC       0.153900
     23 CAC         -2.0820    -2.9350    -1.2790 c3         1 6UC      -0.069900
     24 C24         -2.9390     1.6500    -0.0860 c3         1 6UC       0.189800
     25 O25         -4.1840     0.9800    -0.4010 os         1 6UC      -0.460000
     26 C26         -4.9630     0.5720     0.7420 c3         1 6UC       0.153600
     27 C27         -5.8860    -0.5880     0.2960 c3         1 6UC       0.150800
     28 N28         -5.1810    -1.8620    -0.0310 n3         1 6UC      -0.726600
     29 C21         -4.5510    -2.4970     1.1530 c3         1 6UC       0.141100
     30 C22         -6.0590    -2.8090    -0.7530 c3         1 6UC       0.141100
     31 H1          -1.8150     5.4960     0.1710 hc         1 6UC       0.043367
     32 H2          -2.4470     5.0290     1.7710 hc         1 6UC       0.043367
     33 H3          -1.2900     6.3710     1.6260 hc         1 6UC       0.043367
     34 H4           0.4890     4.7820     0.8730 h1         1 6UC       0.050200
     35 H5          -0.1440     4.3140     2.4740 h1         1 6UC       0.050200
     36 H6          -3.1380    -0.7230    -0.7570 hn         1 6UC       0.545000
     37 H9           1.0280    -0.4670     1.1230 hc         1 6UC       0.096700
     38 H10          0.1120     0.2030    -2.4830 ha         1 6UC       0.112000
     39 H11          1.6880     0.9170    -4.2540 ha         1 6UC       0.111000
     40 H12          4.0970     1.2650    -3.7210 ha         1 6UC       0.112000
     41 H13          4.9200     0.8970    -1.4040 ha         1 6UC       0.124000
     42 H14          2.6770    -4.4870     0.9470 h1         1 6UC       0.045033
     43 H15          3.2780    -4.0620    -0.6770 h1         1 6UC       0.045033
     44 H16          3.9870    -3.3000     0.7620 h1         1 6UC       0.045033
     45 H17         -3.0870    -2.6810    -1.6330 hc         1 6UC       0.065367
     46 H18         -1.5470    -3.3540    -2.1390 hc         1 6UC       0.065367
     47 H19         -2.1830    -3.7250    -0.5270 hc         1 6UC       0.065367
     48 H20         -3.0060     2.1430     0.8920 h1         1 6UC       0.080200
     49 H21         -2.7350     2.4270    -0.8340 h1         1 6UC       0.080200
     50 H22         -4.3230     0.2420     1.5690 h1         1 6UC       0.036200
     51 H23         -5.5740     1.4090     1.1020 h1         1 6UC       0.036200
     52 H24         -6.6220    -0.7660     1.0920 h1         1 6UC       0.049200
     53 H25         -6.4510    -0.2380    -0.5790 h1         1 6UC       0.049200
     54 H27         -5.2980    -2.7000     1.9330 h1         1 6UC       0.036200
     55 H28         -4.0820    -3.4510     0.8800 h1         1 6UC       0.036200
     56 H29         -3.7690    -1.8570     1.5820 h1         1 6UC       0.036200
     57 H30         -6.4560    -2.3500    -1.6690 h1         1 6UC       0.036200
     58 H31         -5.5030    -3.7110    -1.0440 h1         1 6UC       0.036200
     59 H32         -6.9070    -3.1150    -0.1260 h1         1 6UC       0.036200
@<TRIPOS>BOND
     1     1     2 1   
     2     1    31 1   
     3     1    32 1   
     4     1    33 1   
     5     2     3 1   
     6     2    34 1   
     7     2    35 1   
     8     3     4 1   
     9     4     5 2   
    10     4     6 1   
    11     6     7 2   
    12     6    11 1   
    13     7     8 1   
    14     7    24 1   
    15     8     9 1   
    16     8    36 1   
    17     9    10 2   
    18     9    23 1   
    19    10    11 1   
    20    10    19 1   
    21    11    12 1   
    22    11    37 1   
    23    12    13 ar  
    24    12    17 ar  
    25    13    14 ar  
    26    13    38 1   
    27    14    15 ar  
    28    14    39 1   
    29    15    16 ar  
    30    15    40 1   
    31    16    17 ar  
    32    16    41 1   
    33    17    18 1   
    34    19    20 2   
    35    19    21 1   
    36    21    22 1   
    37    22    42 1   
    38    22    43 1   
    39    22    44 1   
    40    23    45 1   
    41    23    46 1   
    42    23    47 1   
    43    24    25 1   
    44    24    48 1   
    45    24    49 1   
    46    25    26 1   
    47    26    27 1   
    48    26    50 1   
    49    26    51 1   
    50    27    28 1   
    51    27    52 1   
    52    27    53 1   
    53    28    29 1   
    54    28    30 1   
    55    29    54 1   
    56    29    55 1   
    57    29    56 1   
    58    30    57 1   
    59    30    58 1   
    60    30    59 1   
@<TRIPOS>SUBSTRUCTURE
     1 6UC         1 TEMP              0 ****  ****    0 ROOT
