@<TRIPOS>MOLECULE
6UC
   59    60     1     0     0
SMALL
abcg2


@<TRIPOS>ATOM
      1 CAA         -1.5600     5.2330     1.3700 c3         1 6UC      -0.098100
      2 CAL         -0.3880     4.2870     1.4660 c3         1 6UC       0.169600
      3 OAS         -0.8010     3.0220     0.9350 os         1 6UC      -0.472100
      4 CAV          0.0780     2.0240     0.9300 c          1 6UC       0.613300
      5 OAF          1.2110     2.1590     1.3410 o          1 6UC      -0.485000
      6 CAY         -0.4240     0.7630     0.3860 ce         1 6UC      -0.272400
      7 CAW         -1.7100     0.5350     0.0210 c2         1 6UC       0.156800
      8 NAP         -2.0800    -0.6950    -0.4360 nu         1 6UC      -0.679000
      9 CAT         -1.2550    -1.7850    -0.4530 c2         1 6UC       0.200800
     10 CAX          0.0470    -1.6550    -0.0920 ce         1 6UC      -0.275400
     11 CBB          0.6520    -0.2940     0.1990 c6         1 6UC       0.130000
     12 CBA          1.5750     0.1280    -0.9410 ca         1 6UC      -0.039300
     13 CAK          1.0020     0.2710    -2.2060 ca         1 6UC      -0.107000
     14 CAI          1.7340     0.6560    -3.3150 ca         1 6UC      -0.108000
     15 CAH          3.0910     0.9130    -3.1820 ca         1 6UC      -0.113000
     16 CAJ          3.6930     0.7820    -1.9420 ca         1 6UC      -0.098000
     17 CAZ          2.9390     0.3940    -0.8380 ca         1 6UC       0.021100
     18 BRAG         3.8800     0.2480     0.7990 br         1 6UC      -0.095100
     19 CAU          0.9170    -2.8300    -0.0390 c          1 6UC       0.619300
     20 OAE          0.5940    -3.9840    -0.2380 o          1 6UC      -0.523000
     21 OAQ          2.1670    -2.4950     0.2740 os         1 6UC      -0.426100
     22 CAB          3.1330    -3.5340     0.3450 c3         1 6UC       0.153900
     23 CAC         -1.9330    -3.0390    -0.9150 c3         1 6UC      -0.069900
     24 C24         -2.8450     1.5520     0.0120 c3         1 6UC       0.189800
     25 O25         -4.0540     0.9730    -0.3860 os         1 6UC      -0.460000
     26 C26         -4.9180     0.5930     0.6700 c3         1 6UC       0.153600
     27 C27         -5.8440    -0.4870     0.1580 c3         1 6UC       0.150800
     28 N28         -5.1370    -1.7240    -0.1390 n3         1 6UC      -0.726600
     29 C21         -4.8610    -2.4830     1.0670 c3         1 6UC       0.141100
     30 C22         -5.8680    -2.5370    -1.0920 c3         1 6UC       0.141100
     31 H1          -1.8720     5.3840     0.3370 hc         1 6UC       0.043367
     32 H2          -2.4160     4.8720     1.9420 hc         1 6UC       0.043367
     33 H3          -1.2720     6.2010     1.7770 hc         1 6UC       0.043367
     34 H4           0.4640     4.6650     0.8970 h1         1 6UC       0.050200
     35 H5          -0.0700     4.1670     2.5040 h1         1 6UC       0.050200
     36 H6          -3.0670    -0.8470    -0.6370 hn         1 6UC       0.545000
     37 H9           1.2330    -0.3490     1.1190 hc         1 6UC       0.096700
     38 H10         -0.0580     0.0740    -2.3230 ha         1 6UC       0.112000
     39 H11          1.2490     0.7550    -4.2780 ha         1 6UC       0.111000
     40 H12          3.6840     1.2140    -4.0360 ha         1 6UC       0.112000
     41 H13          4.7520     0.9800    -1.8390 ha         1 6UC       0.124000
     42 H14          2.9010    -4.2500     1.1340 h1         1 6UC       0.045033
     43 H15          3.2230    -4.0670    -0.6020 h1         1 6UC       0.045033
     44 H16          4.0770    -3.0470     0.5720 h1         1 6UC       0.045033
     45 H17         -2.9240    -2.8070    -1.3000 hc         1 6UC       0.065367
     46 H18         -1.3680    -3.5240    -1.7070 hc         1 6UC       0.065367
     47 H19         -2.0420    -3.7600    -0.1070 hc         1 6UC       0.065367
     48 H20         -2.9340     2.0280     0.9900 h1         1 6UC       0.080200
     49 H21         -2.6010     2.3360    -0.7080 h1         1 6UC       0.080200
     50 H22         -4.3480     0.2420     1.5380 h1         1 6UC       0.036200
     51 H23         -5.5080     1.4540     1.0060 h1         1 6UC       0.036200
     52 H24         -6.6500    -0.6390     0.8910 h1         1 6UC       0.049200
     53 H25         -6.3210    -0.1240    -0.7560 h1         1 6UC       0.049200
     54 H27         -5.7790    -2.8060     1.5810 h1         1 6UC       0.036200
     55 H28         -4.2880    -3.3760     0.8200 h1         1 6UC       0.036200
     56 H29         -4.2710    -1.8990     1.7730 h1         1 6UC       0.036200
     57 H30         -6.0130    -1.9880    -2.0220 h1         1 6UC       0.036200
     58 H31         -5.3010    -3.4400    -1.3230 h1         1 6UC       0.036200
     59 H32         -6.8550    -2.8500    -0.7220 h1         1 6UC       0.036200
@<TRIPOS>BOND
     1     1     2 1   
     2     1    31 1   
     3     1    32 1   
     4     1    33 1   
     5     2     3 1   
     6     2    34 1   
     7     2    35 1   
     8     3     4 1   
     9     4     5 2   
    10     4     6 1   
    11     6     7 2   
    12     6    11 1   
    13     7     8 1   
    14     7    24 1   
    15     8     9 1   
    16     8    36 1   
    17     9    10 2   
    18     9    23 1   
    19    10    11 1   
    20    10    19 1   
    21    11    12 1   
    22    11    37 1   
    23    12    13 ar  
    24    12    17 ar  
    25    13    14 ar  
    26    13    38 1   
    27    14    15 ar  
    28    14    39 1   
    29    15    16 ar  
    30    15    40 1   
    31    16    17 ar  
    32    16    41 1   
    33    17    18 1   
    34    19    20 2   
    35    19    21 1   
    36    21    22 1   
    37    22    42 1   
    38    22    43 1   
    39    22    44 1   
    40    23    45 1   
    41    23    46 1   
    42    23    47 1   
    43    24    25 1   
    44    24    48 1   
    45    24    49 1   
    46    25    26 1   
    47    26    27 1   
    48    26    50 1   
    49    26    51 1   
    50    27    28 1   
    51    27    52 1   
    52    27    53 1   
    53    28    29 1   
    54    28    30 1   
    55    29    54 1   
    56    29    55 1   
    57    29    56 1   
    58    30    57 1   
    59    30    58 1   
    60    30    59 1   
@<TRIPOS>SUBSTRUCTURE
     1 6UC         1 TEMP              0 ****  ****    0 ROOT
