@<TRIPOS>MOLECULE
6UD
   41    41     1     0     0
SMALL
No Charge or Current Charge


@<TRIPOS>ATOM
      1 C1          -1.8640     3.5710     0.5340 c          1 6UD       0.726200
      2 C2          -1.8590     2.0810     0.1500 ce         1 6UD       0.047900
      3 C3          -2.9750     1.4120    -0.2490 c2         1 6UD      -0.425200
      4 C4          -2.9720    -0.0540    -0.6070 c6         1 6UD       0.215500
      5 C5          -1.7190    -0.7720    -0.0260 c6         1 6UD       0.077700
      6 C6          -0.4770     0.1080    -0.3410 c6         1 6UD       0.120300
      7 C7           0.8660    -0.4760     0.2240 c3         1 6UD       0.160300
      8 C8           2.1420     0.1980    -0.3830 c3         1 6UD       0.129300
      9 C9           3.4700    -0.3660     0.2060 c3         1 6UD       0.090800
     10 C11         -1.7970    -4.5650    -0.7820 c3         1 6UD      -0.182100
     11 N5          -1.5820    -2.1410    -0.5790 ns         1 6UD      -0.496900
     12 O1A         -0.8130     4.0960     0.8860 o          1 6UD      -0.694000
     13 O1B         -2.9190     4.1930     0.4790 o          1 6UD      -0.694000
     14 O4          -4.1780    -0.6280    -0.1140 oh         1 6UD      -0.658000
     15 O6          -0.6260     1.4370     0.2240 os         1 6UD      -0.323100
     16 O7           0.8890    -0.3550     1.6600 oh         1 6UD      -0.660000
     17 O8           2.1560     0.0410    -1.8220 oh         1 6UD      -0.644000
     18 O10         -2.3720    -3.3270     1.2070 o          1 6UD      -0.594100
     19 N1           4.6530     0.3030    -0.4000 n7         1 6UD      -0.613200
     20 N2           5.9310    -0.0800     0.1270 n7         1 6UD      -0.401000
     21 N3           6.2170    -1.4870     0.0410 n8         1 6UD      -0.830000
     22 H1          -3.9320     1.9300    -0.3140 ha         1 6UD       0.208000
     23 H2          -2.9450    -0.1360    -1.7040 h1         1 6UD       0.004700
     24 H3          -1.8280    -0.8320     1.0660 h1         1 6UD       0.119700
     25 H4          -0.3980     0.2060    -1.4330 h1         1 6UD       0.046700
     26 H5           0.9110    -1.5400    -0.0470 h1         1 6UD       0.051700
     27 H6           2.0980     1.2680    -0.1280 h1         1 6UD       0.128700
     28 H7           3.4740    -0.2180     1.2940 h1         1 6UD       0.041200
     29 H8           3.4960    -1.4490     0.0220 h1         1 6UD       0.041200
     30 H9          -2.0930    -5.4720    -0.2430 hc         1 6UD       0.050033
     31 H10         -2.3590    -4.4480    -1.7160 hc         1 6UD       0.050033
     32 H11         -0.7630    -4.6270    -1.1400 hc         1 6UD       0.050033
     33 H12         -1.2650    -2.2420    -1.5350 hn         1 6UD       0.295500
     34 H14         -4.9070    -0.1870    -0.5970 ho         1 6UD       0.435000
     35 H15          0.4650     0.5100     1.8630 ho         1 6UD       0.470000
     36 H16          2.3670    -0.8990    -2.0130 ho         1 6UD       0.420000
     37 H17          4.6080     0.3290    -1.4320 hn         1 6UD       0.441000
     38 H18          6.3110     0.4560     0.9430 hn         1 6UD       0.399000
     39 H19          7.1720    -1.6840    -0.2990 hn         1 6UD       0.393000
     40 H20          6.0820    -1.9840     0.9350 hn         1 6UD       0.393000
     41 C10         -1.9580    -3.3020     0.0570 c          1 6UD       0.607100
@<TRIPOS>BOND
     1     1     2 1   
     2     1    12 1   
     3     1    13 1   
     4     2     3 2   
     5     2    15 1   
     6     3     4 1   
     7     3    22 1   
     8     4     5 1   
     9     4    14 1   
    10     4    23 1   
    11     5     6 1   
    12     5    11 1   
    13     5    24 1   
    14     6     7 1   
    15     6    15 1   
    16     6    25 1   
    17     7     8 1   
    18     7    16 1   
    19     7    26 1   
    20     8     9 1   
    21     8    17 1   
    22     8    27 1   
    23     9    19 1   
    24     9    28 1   
    25     9    29 1   
    26    10    30 1   
    27    10    31 1   
    28    10    32 1   
    29    10    41 1   
    30    11    33 1   
    31    11    41 1   
    32    14    34 1   
    33    16    35 1   
    34    17    36 1   
    35    18    41 2   
    36    19    20 1   
    37    19    37 1   
    38    20    21 1   
    39    20    38 1   
    40    21    39 1   
    41    21    40 1   
@<TRIPOS>SUBSTRUCTURE
     1 6UD         1 TEMP              0 ****  ****    0 ROOT
