@<TRIPOS>MOLECULE
6UD
   41    41     1     0     0
SMALL
abcg2


@<TRIPOS>ATOM
      1 C1          -1.6290     3.4940     0.4580 c          1 6UD       0.726200
      2 C2          -1.7210     2.0180     0.0810 ce         1 6UD       0.047900
      3 C3          -2.8500     1.4220    -0.3010 c2         1 6UD      -0.425200
      4 C4          -2.9450    -0.0430    -0.6060 c6         1 6UD       0.215500
      5 C5          -1.7140    -0.7550    -0.0580 c6         1 6UD       0.077700
      6 C6          -0.4700     0.0690    -0.4040 c6         1 6UD       0.120300
      7 C7           0.8310    -0.5480     0.1060 c3         1 6UD       0.160300
      8 C8           2.0640     0.2400    -0.3730 c3         1 6UD       0.129300
      9 C9           3.3550    -0.3700     0.1560 c3         1 6UD       0.090800
     10 C11         -1.6350    -4.4990    -0.6440 c3         1 6UD      -0.182100
     11 N5          -1.6070    -2.0910    -0.5850 ns         1 6UD      -0.496900
     12 O1A         -0.5120     3.8980     0.8180 o          1 6UD      -0.694000
     13 O1B         -2.6860     4.1450     0.3700 o          1 6UD      -0.694000
     14 O4          -4.0810    -0.6380    -0.0180 oh         1 6UD      -0.658000
     15 O6          -0.5420     1.3610     0.1770 os         1 6UD      -0.323100
     16 O7           0.8130    -0.6930     1.5050 oh         1 6UD      -0.660000
     17 O8           2.0800     0.3300    -1.7850 oh         1 6UD      -0.644000
     18 O10         -1.9760    -3.2200     1.3430 o          1 6UD      -0.594100
     19 N1           4.4930     0.4400    -0.2510 n7         1 6UD      -0.613200
     20 N2           5.7420    -0.0100     0.1920 n7         1 6UD      -0.401000
     21 N3           5.9990    -1.3680    -0.1090 n8         1 6UD      -0.830000
     22 H1          -3.7420     2.0280    -0.3880 ha         1 6UD       0.208000
     23 H2          -2.9710    -0.1890    -1.6980 h1         1 6UD       0.004700
     24 H3          -1.8040    -0.8300     1.0280 h1         1 6UD       0.119700
     25 H4          -0.4120     0.1720    -1.4970 h1         1 6UD       0.046700
     26 H5           0.9060    -1.5630    -0.3000 h1         1 6UD       0.051700
     27 H6           1.9960     1.2730    -0.0180 h1         1 6UD       0.128700
     28 H7           3.3230    -0.3860     1.2480 h1         1 6UD       0.041200
     29 H8           3.4270    -1.4170    -0.1770 h1         1 6UD       0.041200
     30 H9          -2.5360    -5.0980    -0.5090 hc         1 6UD       0.050033
     31 H10         -1.4780    -4.3490    -1.7100 hc         1 6UD       0.050033
     32 H11         -0.8000    -5.0790    -0.2510 hc         1 6UD       0.050033
     33 H12         -1.4720    -2.1860    -1.5800 hn         1 6UD       0.295500
     34 H14         -4.8630    -0.2830    -0.4520 ho         1 6UD       0.435000
     35 H15          0.6800     0.1770     1.8990 ho         1 6UD       0.470000
     36 H16          2.1670    -0.5590    -2.1470 ho         1 6UD       0.420000
     37 H17          4.5360     0.4920    -1.2600 hn         1 6UD       0.441000
     38 H18          5.7720     0.1480     1.1920 hn         1 6UD       0.399000
     39 H19          6.9970    -1.4660    -0.2330 hn         1 6UD       0.393000
     40 H20          5.7320    -1.9820     0.6530 hn         1 6UD       0.393000
     41 C10         -1.7620    -3.2160     0.1400 c          1 6UD       0.607100
@<TRIPOS>BOND
     1     1     2 1   
     2     1    12 1   
     3     1    13 1   
     4     2     3 2   
     5     2    15 1   
     6     3     4 1   
     7     3    22 1   
     8     4     5 1   
     9     4    14 1   
    10     4    23 1   
    11     5     6 1   
    12     5    11 1   
    13     5    24 1   
    14     6     7 1   
    15     6    15 1   
    16     6    25 1   
    17     7     8 1   
    18     7    16 1   
    19     7    26 1   
    20     8     9 1   
    21     8    17 1   
    22     8    27 1   
    23     9    19 1   
    24     9    28 1   
    25     9    29 1   
    26    10    30 1   
    27    10    31 1   
    28    10    32 1   
    29    10    41 1   
    30    11    33 1   
    31    11    41 1   
    32    14    34 1   
    33    16    35 1   
    34    17    36 1   
    35    18    41 2   
    36    19    20 1   
    37    19    37 1   
    38    20    21 1   
    39    20    38 1   
    40    21    39 1   
    41    21    40 1   
@<TRIPOS>SUBSTRUCTURE
     1 6UD         1 TEMP              0 ****  ****    0 ROOT
