@<TRIPOS>MOLECULE
6UE
   50    54     1     0     0
SMALL
No Charge or Current Charge


@<TRIPOS>ATOM
      1 C2          -2.7100     2.3560    -1.0120 ca         1 6UE       0.119900
      2 C3          -2.4890     1.0500    -0.5240 ca         1 6UE      -0.123000
      3 C5          -3.5540    -1.1230     0.3640 cp         1 6UE      -0.161500
      4 C7          -2.7000    -3.4240     0.2220 ca         1 6UE      -0.117500
      5 C9          -4.2430    -2.8240     2.0010 ca         1 6UE      -0.117500
      6 C10         -4.3030    -1.5100     1.5050 ca         1 6UE      -0.082000
      7 C11          0.0480     0.8750    -0.8240 c          1 6UE       0.653100
      8 C12          2.4300     0.3320    -0.7850 c5         1 6UE       0.211300
      9 C13          3.1720     1.2260     0.2210 ca         1 6UE      -0.115300
     10 C15          3.7600     3.1030     1.6170 ca         1 6UE      -0.111000
     11 C18          4.2860     0.5110     0.6700 cp         1 6UE      -0.033500
     12 C20          3.2610    -0.9570    -0.8460 ca         1 6UE      -0.115300
     13 C21          3.0700    -2.1260    -1.5960 ca         1 6UE      -0.079500
     14 C22          4.0080    -3.1690    -1.4480 ca         1 6UE      -0.111000
     15 O            0.2350     1.8190    -1.5790 o          1 6UE      -0.621100
     16 N2          -1.1900     0.4930    -0.3370 ns         1 6UE      -0.165000
     17 N           -3.9530     2.8660    -1.1260 nb         1 6UE      -0.167000
     18 C4          -3.6300     0.2790    -0.1610 cp         1 6UE       0.151500
     19 C8          -3.4380    -3.7810     1.3620 ca         1 6UE      -0.097000
     20 C6          -2.7600    -2.1110    -0.2740 ca         1 6UE      -0.082000
     21 N1          -4.8640     0.8130    -0.2640 nb         1 6UE      -0.174000
     22 C1          -4.9730     2.0700    -0.7430 ca         1 6UE       0.129300
     23 C           -6.3750     2.6400    -0.8680 c3         1 6UE      -0.131400
     24 N3           1.0560     0.0550    -0.3680 ns         1 6UE      -0.503900
     25 C23          5.1050    -3.0270    -0.5660 ca         1 6UE      -0.105500
     26 C24          5.2780    -1.8410     0.1790 ca         1 6UE      -0.087500
     27 C19          4.3380    -0.8010     0.0280 cp         1 6UE      -0.033500
     28 C17          5.1610     1.0890     1.6110 ca         1 6UE      -0.087500
     29 C16          4.8900     2.3910     2.0830 ca         1 6UE      -0.105500
     30 C14          2.8860     2.5220     0.6750 ca         1 6UE      -0.079500
     31 H1          -1.8980     3.0220    -1.2940 h4         1 6UE       0.040100
     32 H2          -2.0850    -4.1680    -0.2810 ha         1 6UE       0.116000
     33 H3          -4.8190    -3.0990     2.8810 ha         1 6UE       0.116000
     34 H4          -4.9290    -0.7810     2.0150 ha         1 6UE       0.124500
     35 H5           2.4670     0.8060    -1.7780 h1         1 6UE       0.109700
     36 H6           3.5620     4.1060     1.9880 ha         1 6UE       0.115500
     37 H7           2.2220    -2.2260    -2.2710 ha         1 6UE       0.124500
     38 H8           3.8860    -4.0880    -2.0160 ha         1 6UE       0.115500
     39 H9          -1.1780    -0.3300     0.2510 hn         1 6UE       0.158000
     40 H10         -3.3920    -4.7980     1.7450 ha         1 6UE       0.115000
     41 H11         -2.1990    -1.8620    -1.1730 ha         1 6UE       0.124500
     42 H12         -6.7990     2.4150    -1.8530 hc         1 6UE       0.059367
     43 H13         -7.0480     2.2200    -0.1100 hc         1 6UE       0.059367
     44 H14         -6.3790     3.7290    -0.7420 hc         1 6UE       0.059367
     45 H15          0.8100    -0.7010     0.2560 hn         1 6UE       0.315500
     46 H16          5.8210    -3.8390    -0.4610 ha         1 6UE       0.114500
     47 H17          6.1210    -1.7320     0.8560 ha         1 6UE       0.118000
     48 H18          6.0300     0.5430     1.9680 ha         1 6UE       0.118000
     49 H19          5.5560     2.8510     2.8090 ha         1 6UE       0.114500
     50 H20          2.0150     3.0630     0.3110 ha         1 6UE       0.124500
@<TRIPOS>BOND
     1     1     2 ar  
     2     1    17 ar  
     3     1    31 1   
     4     2    16 1   
     5     2    18 ar  
     6     3     6 ar  
     7     3    18 1   
     8     3    20 ar  
     9     4    19 ar  
    10     4    20 ar  
    11     4    32 1   
    12     5     6 ar  
    13     5    19 ar  
    14     5    33 1   
    15     6    34 1   
    16     7    15 2   
    17     7    16 1   
    18     7    24 1   
    19     8     9 1   
    20     8    12 1   
    21     8    24 1   
    22     8    35 1   
    23     9    11 ar  
    24     9    30 ar  
    25    10    29 ar  
    26    10    30 ar  
    27    10    36 1   
    28    11    27 1   
    29    11    28 ar  
    30    12    13 ar  
    31    12    27 ar  
    32    13    14 ar  
    33    13    37 1   
    34    14    25 ar  
    35    14    38 1   
    36    16    39 1   
    37    17    22 ar  
    38    18    21 ar  
    39    19    40 1   
    40    20    41 1   
    41    21    22 ar  
    42    22    23 1   
    43    23    42 1   
    44    23    43 1   
    45    23    44 1   
    46    24    45 1   
    47    25    26 ar  
    48    25    46 1   
    49    26    27 ar  
    50    26    47 1   
    51    28    29 ar  
    52    28    48 1   
    53    29    49 1   
    54    30    50 1   
@<TRIPOS>SUBSTRUCTURE
     1 6UE         1 TEMP              0 ****  ****    0 ROOT
