@<TRIPOS>MOLECULE
6UE
   50    54     1     0     0
SMALL
abcg2


@<TRIPOS>ATOM
      1 C2          -2.6380     2.4110    -0.1770 ca         1 6UE       0.119900
      2 C3          -2.4520     1.0500     0.0350 ca         1 6UE      -0.123000
      3 C5          -3.5720    -1.2110     0.1650 cp         1 6UE      -0.161500
      4 C7          -2.6470    -3.3910    -0.3040 ca         1 6UE      -0.117500
      5 C9          -4.5400    -3.1830     1.1620 ca         1 6UE      -0.117500
      6 C10         -4.5340    -1.8090     0.9770 ca         1 6UE      -0.082000
      7 C11         -0.0800     0.7440    -0.3950 c          1 6UE       0.653100
      8 C12          2.3040     0.2170    -0.5800 c5         1 6UE       0.211300
      9 C13          3.2100     1.2450     0.0670 ca         1 6UE      -0.115300
     10 C15          3.9680     3.3470     0.9010 ca         1 6UE      -0.111000
     11 C18          4.4240     0.6590     0.4340 cp         1 6UE      -0.033500
     12 C20          3.1340    -1.0420    -0.4850 ca         1 6UE      -0.115300
     13 C21          2.8060    -2.3230    -0.8830 ca         1 6UE      -0.079500
     14 C22          3.7450    -3.3360    -0.7090 ca         1 6UE      -0.111000
     15 O           -0.0840     1.4700    -1.3760 o          1 6UE      -0.621100
     16 N2          -1.2020     0.5270     0.3680 ns         1 6UE      -0.165000
     17 N           -3.8220     2.9370    -0.4390 nb         1 6UE      -0.167000
     18 C4          -3.5980     0.2550    -0.0350 cp         1 6UE       0.151500
     19 C8          -3.5950    -3.9770     0.5240 ca         1 6UE      -0.097000
     20 C6          -2.6300    -2.0150    -0.4790 ca         1 6UE      -0.082000
     21 N1          -4.7900     0.8040    -0.2500 nb         1 6UE      -0.174000
     22 C1          -4.8650     2.1110    -0.4550 ca         1 6UE       0.129300
     23 C           -6.2100     2.6920    -0.7520 c3         1 6UE      -0.131400
     24 N3           1.0110     0.0660     0.0370 ns         1 6UE      -0.503900
     25 C23          4.9890    -3.0600    -0.1490 ca         1 6UE      -0.105500
     26 C24          5.3170    -1.7700     0.2560 ca         1 6UE      -0.087500
     27 C19          4.3770    -0.7630     0.0880 cp         1 6UE      -0.033500
     28 C17          5.4200     1.4160     1.0340 ca         1 6UE      -0.087500
     29 C16          5.1800     2.7660     1.2650 ca         1 6UE      -0.105500
     30 C14          2.9710     2.5860     0.2950 ca         1 6UE      -0.079500
     31 H1          -1.8000     3.0940    -0.1170 h4         1 6UE       0.040100
     32 H2          -1.9200    -4.0050    -0.8180 ha         1 6UE       0.116000
     33 H3          -5.2850    -3.6360     1.8030 ha         1 6UE       0.116000
     34 H4          -5.2760    -1.1940     1.4680 ha         1 6UE       0.124500
     35 H5           2.1430     0.4780    -1.6300 h1         1 6UE       0.109700
     36 H6           3.8000     4.3990     1.0920 ha         1 6UE       0.115500
     37 H7           1.8380    -2.5410    -1.3170 ha         1 6UE       0.124500
     38 H8           3.5060    -4.3470    -1.0120 ha         1 6UE       0.115500
     39 H9          -1.1900    -0.2230     1.0430 hn         1 6UE       0.158000
     40 H10         -3.6020    -5.0500     0.6670 ha         1 6UE       0.115000
     41 H11         -1.9020    -1.5750    -1.1480 ha         1 6UE       0.124500
     42 H12         -6.3960     2.6720    -1.8280 hc         1 6UE       0.059367
     43 H13         -7.0000     2.1200    -0.2710 hc         1 6UE       0.059367
     44 H14         -6.2680     3.7300    -0.4300 hc         1 6UE       0.059367
     45 H15          0.9890    -0.3800     0.9410 hn         1 6UE       0.315500
     46 H16          5.7070    -3.8590    -0.0230 ha         1 6UE       0.114500
     47 H17          6.2850    -1.5660     0.6960 ha         1 6UE       0.118000
     48 H18          6.3640     0.9730     1.3240 ha         1 6UE       0.118000
     49 H19          5.9440     3.3720     1.7330 ha         1 6UE       0.114500
     50 H20          2.0330     3.0430     0.0060 ha         1 6UE       0.124500
@<TRIPOS>BOND
     1     1     2 ar  
     2     1    17 ar  
     3     1    31 1   
     4     2    16 1   
     5     2    18 ar  
     6     3     6 ar  
     7     3    18 1   
     8     3    20 ar  
     9     4    19 ar  
    10     4    20 ar  
    11     4    32 1   
    12     5     6 ar  
    13     5    19 ar  
    14     5    33 1   
    15     6    34 1   
    16     7    15 2   
    17     7    16 1   
    18     7    24 1   
    19     8     9 1   
    20     8    12 1   
    21     8    24 1   
    22     8    35 1   
    23     9    11 ar  
    24     9    30 ar  
    25    10    29 ar  
    26    10    30 ar  
    27    10    36 1   
    28    11    27 1   
    29    11    28 ar  
    30    12    13 ar  
    31    12    27 ar  
    32    13    14 ar  
    33    13    37 1   
    34    14    25 ar  
    35    14    38 1   
    36    16    39 1   
    37    17    22 ar  
    38    18    21 ar  
    39    19    40 1   
    40    20    41 1   
    41    21    22 ar  
    42    22    23 1   
    43    23    42 1   
    44    23    43 1   
    45    23    44 1   
    46    24    45 1   
    47    25    26 ar  
    48    25    46 1   
    49    26    27 ar  
    50    26    47 1   
    51    28    29 ar  
    52    28    48 1   
    53    29    49 1   
    54    30    50 1   
@<TRIPOS>SUBSTRUCTURE
     1 6UE         1 TEMP              0 ****  ****    0 ROOT
