@<TRIPOS>MOLECULE
6UF
   42    45     1     0     0
SMALL
No Charge or Current Charge


@<TRIPOS>ATOM
      1 C2          -1.4610     2.3520    -1.4070 ca         1 6UF      -0.124000
      2 C3          -2.0350     1.2210    -0.7980 ca         1 6UF      -0.037200
      3 C5          -4.0960     2.4260    -0.3310 ca         1 6UF      -0.061000
      4 C7          -2.4550    -0.8460     0.1130 cc         1 6UF       0.031700
      5 C9           0.9660    -0.3780    -0.1380 c          1 6UF       0.578100
      6 C10          3.4210    -0.8850     0.1540 c3         1 6UF       0.055700
      7 C11          4.1350     0.4670     0.1650 ca         1 6UF       0.323300
      8 C12          5.5300     1.9600    -0.9440 ca         1 6UF       0.345900
      9 C13          5.4430     2.8920     0.1050 ca         1 6UF      -0.159000
     10 C15          3.9980     1.3480     1.2560 ca         1 6UF      -0.143000
     11 C18         -2.9870    -4.1970     1.6190 cd         1 6UF      -0.137000
     12 O            0.8590     0.0700     0.9960 o          1 6UF      -0.572100
     13 N1           2.1620    -0.8730    -0.6120 ns         1 6UF      -0.484900
     14 C14          4.6620     2.5850     1.2300 ca         1 6UF      -0.068000
     15 N2           4.8900     0.7670    -0.9220 nb         1 6UF      -0.682000
     16 N           -1.5100    -0.0570    -0.5900 na         1 6UF      -0.073700
     17 C1          -2.2330     3.5330    -1.4790 ca         1 6UF      -0.096000
     18 C6          -3.5590    -0.0240     0.2880 cd         1 6UF      -0.213200
     19 C4          -3.3030     1.2740    -0.2780 ca         1 6UF      -0.093800
     20 C           -3.5440     3.5690    -0.9470 ca         1 6UF      -0.142000
     21 C16         -2.3250    -2.2110     0.5760 cc         1 6UF      -0.177800
     22 C19         -3.3330    -2.8710     1.2430 cd         1 6UF      -0.115000
     23 C17         -1.7180    -4.5610     1.2480 cc         1 6UF      -0.254000
     24 S           -0.9020    -3.2450     0.4110 ss         1 6UF       0.248000
     25 H1          -0.4520     2.3350    -1.8110 ha         1 6UF       0.122000
     26 H2          -5.0980     2.4410     0.0900 ha         1 6UF       0.113000
     27 H3           4.0880    -1.6390    -0.2830 h1         1 6UF       0.064200
     28 H4           3.2110    -1.1950     1.1860 h1         1 6UF       0.064200
     29 H5           6.1280     2.1750    -1.8280 h4         1 6UF       0.018100
     30 H6           5.9760     3.8360     0.0380 ha         1 6UF       0.125000
     31 H7           3.3790     1.0740     2.1060 ha         1 6UF       0.124000
     32 H8          -3.6650    -4.8600     2.1500 ha         1 6UF       0.133000
     33 H9           2.1780    -1.2110    -1.5680 hn         1 6UF       0.317500
     34 H10          4.5730     3.2860     2.0590 ha         1 6UF       0.120000
     35 H11          0.0630     0.1980    -1.9900 h1         1 6UF       0.076700
     36 H12         -0.2540    -1.4650    -1.5410 h1         1 6UF       0.076700
     37 H13         -1.8150     4.4220    -1.9460 ha         1 6UF       0.105000
     38 H14         -4.4760    -0.3050     0.7950 ha         1 6UF       0.208000
     39 H15         -4.1280     4.4850    -1.0080 ha         1 6UF       0.108000
     40 H16         -4.3020    -2.4390     1.4680 ha         1 6UF       0.137000
     41 H17         -1.1990    -5.4990     1.4040 h4         1 6UF       0.149000
     42 C8          -0.1930    -0.4470    -1.1440 c3         1 6UF      -0.011400
@<TRIPOS>BOND
     1     1     2 ar  
     2     1    17 ar  
     3     1    25 1   
     4     2    16 1   
     5     2    19 ar  
     6     3    19 ar  
     7     3    20 ar  
     8     3    26 1   
     9     4    16 1   
    10     4    18 2   
    11     4    21 1   
    12     5    12 2   
    13     5    13 1   
    14     5    42 1   
    15     6     7 1   
    16     6    13 1   
    17     6    27 1   
    18     6    28 1   
    19     7    10 ar  
    20     7    15 ar  
    21     8     9 ar  
    22     8    15 ar  
    23     8    29 1   
    24     9    14 ar  
    25     9    30 1   
    26    10    14 ar  
    27    10    31 1   
    28    11    22 1   
    29    11    23 2   
    30    11    32 1   
    31    13    33 1   
    32    14    34 1   
    33    16    42 1   
    34    17    20 ar  
    35    17    37 1   
    36    18    19 1   
    37    18    38 1   
    38    20    39 1   
    39    21    22 2   
    40    21    24 1   
    41    22    40 1   
    42    23    24 1   
    43    23    41 1   
    44    35    42 1   
    45    36    42 1   
@<TRIPOS>SUBSTRUCTURE
     1 6UF         1 TEMP              0 ****  ****    0 ROOT
