@<TRIPOS>MOLECULE
6UF
   42    45     1     0     0
SMALL
bcc


@<TRIPOS>ATOM
      1 C2          -0.5710     1.8380    -1.5030 ca         1 6UF      -0.142000
      2 C3          -1.3980     0.9840    -0.7740 ca         1 6UF      -0.037200
      3 C5          -2.9340     2.7840    -0.2500 ca         1 6UF      -0.079000
      4 C7          -2.3070    -0.7570     0.2890 cc         1 6UF       0.031700
      5 C9           1.0720    -0.9730    -0.2780 c          1 6UF       0.645100
      6 C10          3.4790    -0.7540    -0.4170 c3         1 6UF       0.055700
      7 C11          3.6180     0.7070    -0.0500 ca         1 6UF       0.388600
      8 C12          3.1390     2.8780    -0.5580 ca         1 6UF       0.411200
      9 C13          3.8570     3.3590     0.5260 ca         1 6UF      -0.242300
     10 C15          4.3580     1.0880     1.0630 ca         1 6UF      -0.226300
     11 C18         -3.5120    -4.0940     1.4180 cd         1 6UF      -0.155000
     12 O            1.0500    -0.7830     0.9250 o          1 6UF      -0.572100
     13 N1           2.1980    -1.0610    -0.9990 ns         1 6UF      -0.551900
     14 C14          4.4820     2.4370     1.3530 ca         1 6UF      -0.086000
     15 N2           3.0240     1.5870    -0.8460 nb         1 6UF      -0.682000
     16 N           -1.2680    -0.3560    -0.5230 na         1 6UF      -0.044400
     17 C1          -0.9540     3.1630    -1.5970 ca         1 6UF      -0.114000
     18 C6          -3.1300     0.3110     0.5340 cd         1 6UF      -0.163200
     19 C4          -2.5720     1.4360    -0.1370 ca         1 6UF      -0.093800
     20 C           -2.1250     3.6320    -0.9810 ca         1 6UF      -0.160000
     21 C16         -2.4740    -2.1130     0.7790 cc         1 6UF      -0.032900
     22 C19         -3.6390    -2.8300     0.7870 cd         1 6UF      -0.133000
     23 C17         -2.2510    -4.3190     1.8800 cc         1 6UF      -0.127100
     24 S           -1.2110    -2.9960     1.5690 ss         1 6UF      -0.041800
     25 H1           0.3540     1.4980    -1.9540 ha         1 6UF       0.140000
     26 H2          -3.8310     3.1550     0.2300 ha         1 6UF       0.131000
     27 H3           4.2420    -1.0180    -1.1510 h1         1 6UF       0.064200
     28 H4           3.6580    -1.3770     0.4590 h1         1 6UF       0.064200
     29 H5           2.6310     3.5660    -1.2250 h4         1 6UF       0.018100
     30 H6           3.9170     4.4210     0.7170 ha         1 6UF       0.143000
     31 H7           4.8200     0.3400     1.6940 ha         1 6UF       0.142000
     32 H8          -4.3200    -4.8040     1.5140 ha         1 6UF       0.151000
     33 H9           2.1330    -1.0730    -2.0030 hn         1 6UF       0.317500
     34 H10          5.0480     2.7630     2.2160 ha         1 6UF       0.138000
     35 H11         -0.0820    -0.9170    -2.1240 h1         1 6UF       0.076700
     36 H12         -0.5010    -2.2140    -1.0360 h1         1 6UF       0.076700
     37 H13         -0.3350     3.8540    -2.1540 ha         1 6UF       0.123000
     38 H14         -4.0080     0.2910     1.1600 ha         1 6UF       0.158000
     39 H15         -2.3900     4.6770    -1.0760 ha         1 6UF       0.126000
     40 H16         -4.5540    -2.4620     0.3430 ha         1 6UF       0.155000
     41 H17         -1.8750    -5.1970     2.3840 h4         1 6UF       0.167000
     42 C8          -0.2160    -1.1610    -1.0690 c3         1 6UF      -0.040700
@<TRIPOS>BOND
     1     1     2 ar  
     2     1    17 ar  
     3     1    25 1   
     4     2    16 1   
     5     2    19 ar  
     6     3    19 ar  
     7     3    20 ar  
     8     3    26 1   
     9     4    16 1   
    10     4    18 2   
    11     4    21 1   
    12     5    12 2   
    13     5    13 1   
    14     5    42 1   
    15     6     7 1   
    16     6    13 1   
    17     6    27 1   
    18     6    28 1   
    19     7    10 ar  
    20     7    15 ar  
    21     8     9 ar  
    22     8    15 ar  
    23     8    29 1   
    24     9    14 ar  
    25     9    30 1   
    26    10    14 ar  
    27    10    31 1   
    28    11    22 1   
    29    11    23 2   
    30    11    32 1   
    31    13    33 1   
    32    14    34 1   
    33    16    42 1   
    34    17    20 ar  
    35    17    37 1   
    36    18    19 1   
    37    18    38 1   
    38    20    39 1   
    39    21    22 2   
    40    21    24 1   
    41    22    40 1   
    42    23    24 1   
    43    23    41 1   
    44    35    42 1   
    45    36    42 1   
@<TRIPOS>SUBSTRUCTURE
     1 6UF         1 TEMP              0 ****  ****    0 ROOT
