@<TRIPOS>MOLECULE
6UG
   41    43     1     0     0
SMALL
No Charge or Current Charge


@<TRIPOS>ATOM
      1 C2          -4.0910    -3.2390    -0.2130 ca         1 6UG      -0.146000
      2 C3          -2.7190    -2.9480    -0.1560 ca         1 6UG      -0.069000
      3 C5           0.2000    -1.8550     0.3000 c          1 6UG       0.619700
      4 C7           1.4690     0.3110    -0.2210 ca         1 6UG      -0.068000
      5 C9           3.9080     0.4480    -0.0890 ca         1 6UG      -0.151300
      6 C10          3.9360    -0.9130     0.2780 ca         1 6UG      -0.114000
      7 C11          2.7500    -1.6540     0.4040 ca         1 6UG       0.217000
      8 C12          5.2070     1.2520    -0.2350 c3         1 6UG       0.358300
      9 C13         -3.3310    -0.5840    -0.0930 cp         1 6UG       0.388500
     10 C15         -3.6010     1.7930    -0.9390 ca         1 6UG      -0.060500
     11 C18         -1.8270     2.7710     1.0090 ca         1 6UG      -0.159500
     12 C17         -2.4120     3.6490     0.0860 ca         1 6UG       0.181000
     13 C16         -3.3000     3.1660    -0.8850 ca         1 6UG      -0.159500
     14 C19         -2.1270     1.3990     0.9590 ca         1 6UG      -0.060500
     15 C14         -3.0100     0.8800    -0.0260 cp         1 6UG      -0.170500
     16 N1          -4.6460    -0.8880    -0.1740 nb         1 6UG      -0.664000
     17 C1          -5.0190    -2.1830    -0.2260 ca         1 6UG       0.353300
     18 C           -6.5100    -2.4480    -0.2980 c3         1 6UG      -0.143400
     19 C4          -2.3250    -1.5960    -0.0970 ca         1 6UG      -0.085000
     20 N           -0.9580    -1.1920    -0.0870 ns         1 6UG      -0.150000
     21 O            0.1720    -2.9930     0.7520 o          1 6UG      -0.548100
     22 C6           1.4880    -1.0570     0.1590 ca         1 6UG      -0.175600
     23 F3           6.1940     0.7870     0.5640 f          1 6UG      -0.108000
     24 F2           5.6720     1.2070    -1.5040 f          1 6UG      -0.108000
     25 F1           5.0390     2.5570     0.0780 f          1 6UG      -0.108000
     26 C8           2.6600     1.0470    -0.3440 ca         1 6UG      -0.085000
     27 H1          -4.4330    -4.2690    -0.2610 ha         1 6UG       0.128000
     28 H2          -1.9960    -3.7600    -0.1800 ha         1 6UG       0.138000
     29 H3           0.5380     0.8350    -0.4240 ha         1 6UG       0.131000
     30 H4           4.8840    -1.4130     0.4670 ha         1 6UG       0.154000
     31 H5          -4.2890     1.4280    -1.6990 ha         1 6UG       0.127500
     32 H6          -1.1490     3.1560     1.7660 ha         1 6UG       0.135500
     33 H7          -3.7540     3.8530    -1.5940 ha         1 6UG       0.135500
     34 H8          -1.6820     0.7340     1.6970 ha         1 6UG       0.127500
     35 H9          -6.9620    -2.3960     0.6990 hc         1 6UG       0.053033
     36 H10         -7.0150    -1.7140    -0.9370 hc         1 6UG       0.053033
     37 H11         -6.7190    -3.4430    -0.7090 hc         1 6UG       0.053033
     38 H12         -0.8110    -0.2450    -0.4100 hn         1 6UG       0.166000
     39 H13          2.6040     2.0930    -0.6430 ha         1 6UG       0.141000
     40 F4          -2.1240     4.9680     0.1370 f          1 6UG      -0.176000
     41 F            2.8610    -2.9550     0.7540 f          1 6UG      -0.150000
@<TRIPOS>BOND
     1     1     2 ar  
     2     1    17 ar  
     3     1    27 1   
     4     2    19 ar  
     5     2    28 1   
     6     3    20 1   
     7     3    21 2   
     8     3    22 1   
     9     4    22 ar  
    10     4    26 ar  
    11     4    29 1   
    12     5     6 ar  
    13     5     8 1   
    14     5    26 ar  
    15     6     7 ar  
    16     6    30 1   
    17     7    22 ar  
    18     7    41 1   
    19     8    23 1   
    20     8    24 1   
    21     8    25 1   
    22     9    15 1   
    23     9    16 ar  
    24     9    19 ar  
    25    10    13 ar  
    26    10    15 ar  
    27    10    31 1   
    28    11    12 ar  
    29    11    14 ar  
    30    11    32 1   
    31    12    13 ar  
    32    12    40 1   
    33    13    33 1   
    34    14    15 ar  
    35    14    34 1   
    36    16    17 ar  
    37    17    18 1   
    38    18    35 1   
    39    18    36 1   
    40    18    37 1   
    41    19    20 1   
    42    20    38 1   
    43    26    39 1   
@<TRIPOS>SUBSTRUCTURE
     1 6UG         1 TEMP              0 ****  ****    0 ROOT
