@<TRIPOS>MOLECULE
6UG
   41    43     1     0     0
SMALL
abcg2


@<TRIPOS>ATOM
      1 C2          -3.9370    -3.0990    -0.6460 ca         1 6UG      -0.146000
      2 C3          -2.6030    -2.7430    -0.6320 ca         1 6UG      -0.069000
      3 C5           0.1140    -1.6240     0.2170 c          1 6UG       0.619700
      4 C7           1.8580    -0.5650    -1.2550 ca         1 6UG      -0.068000
      5 C9           3.9180     0.2560    -0.3480 ca         1 6UG      -0.151300
      6 C10          3.5070    -0.0990     0.9300 ca         1 6UG      -0.114000
      7 C11          2.2750    -0.6970     1.0850 ca         1 6UG       0.217000
      8 C12          5.2350     0.9500    -0.5260 c3         1 6UG       0.358300
      9 C13         -3.2830    -0.5200    -0.0700 cp         1 6UG       0.388500
     10 C15         -3.7110     1.9060    -0.4060 ca         1 6UG      -0.060500
     11 C18         -1.8890     2.5880     1.5790 ca         1 6UG      -0.159500
     12 C17         -2.5850     3.5580     0.8850 ca         1 6UG       0.181000
     13 C16         -3.4980     3.2420    -0.1040 ca         1 6UG      -0.159500
     14 C19         -2.1070     1.2570     1.2560 ca         1 6UG      -0.060500
     15 C14         -3.0130     0.8990     0.2580 cp         1 6UG      -0.170500
     16 N1          -4.5640    -0.8720    -0.1270 nb         1 6UG      -0.664000
     17 C1          -4.9030    -2.1270    -0.3990 ca         1 6UG       0.353300
     18 C           -6.3630    -2.4590    -0.4040 c3         1 6UG      -0.143400
     19 C4          -2.2560    -1.4280    -0.3440 ca         1 6UG      -0.085000
     20 N           -0.9210    -0.9950    -0.3900 ns         1 6UG      -0.150000
     21 O            0.0070    -2.6470     0.8620 o          1 6UG      -0.548100
     22 C6           1.4270    -0.9390     0.0140 ca         1 6UG      -0.175600
     23 F3           6.1430     0.5390     0.3640 f          1 6UG      -0.108000
     24 F2           5.7500     0.7490    -1.7410 f          1 6UG      -0.108000
     25 F1           5.1060     2.2750    -0.3680 f          1 6UG      -0.108000
     26 C8           3.0980     0.0240    -1.4430 ca         1 6UG      -0.085000
     27 H1          -4.2280    -4.1160    -0.8710 ha         1 6UG       0.128000
     28 H2          -1.8440    -3.4730    -0.8750 ha         1 6UG       0.138000
     29 H3           1.2290    -0.7550    -2.1150 ha         1 6UG       0.131000
     30 H4           4.1200     0.0800     1.8040 ha         1 6UG       0.154000
     31 H5          -4.4260     1.6480    -1.1760 ha         1 6UG       0.127500
     32 H6          -1.1950     2.8610     2.3630 ha         1 6UG       0.135500
     33 H7          -4.0330     4.0210    -0.6290 ha         1 6UG       0.135500
     34 H8          -1.5820     0.4960     1.8190 ha         1 6UG       0.127500
     35 H9          -6.7020    -2.7020     0.6060 hc         1 6UG       0.053033
     36 H10         -6.9550    -1.6140    -0.7530 hc         1 6UG       0.053033
     37 H11         -6.5760    -3.3210    -1.0350 hc         1 6UG       0.053033
     38 H12         -0.7520    -0.0780    -0.7770 hn         1 6UG       0.166000
     39 H13          3.4070     0.2900    -2.4430 ha         1 6UG       0.141000
     40 F4          -2.3740     4.8480     1.1840 f          1 6UG      -0.176000
     41 F            1.8780    -1.0240     2.3160 f          1 6UG      -0.150000
@<TRIPOS>BOND
     1     1     2 ar  
     2     1    17 ar  
     3     1    27 1   
     4     2    19 ar  
     5     2    28 1   
     6     3    20 1   
     7     3    21 2   
     8     3    22 1   
     9     4    22 ar  
    10     4    26 ar  
    11     4    29 1   
    12     5     6 ar  
    13     5     8 1   
    14     5    26 ar  
    15     6     7 ar  
    16     6    30 1   
    17     7    22 ar  
    18     7    41 1   
    19     8    23 1   
    20     8    24 1   
    21     8    25 1   
    22     9    15 1   
    23     9    16 ar  
    24     9    19 ar  
    25    10    13 ar  
    26    10    15 ar  
    27    10    31 1   
    28    11    12 ar  
    29    11    14 ar  
    30    11    32 1   
    31    12    13 ar  
    32    12    40 1   
    33    13    33 1   
    34    14    15 ar  
    35    14    34 1   
    36    16    17 ar  
    37    17    18 1   
    38    18    35 1   
    39    18    36 1   
    40    18    37 1   
    41    19    20 1   
    42    20    38 1   
    43    26    39 1   
@<TRIPOS>SUBSTRUCTURE
     1 6UG         1 TEMP              0 ****  ****    0 ROOT
