@<TRIPOS>MOLECULE
6UH
   43    45     1     0     0
SMALL
No Charge or Current Charge


@<TRIPOS>ATOM
      1 C2          -3.6770     0.2760     0.2770 cc         1 6UH       0.328500
      2 C3          -3.4820    -1.1510     0.6280 ca         1 6UH      -0.142500
      3 C5          -2.1340    -3.2050     0.6920 ca         1 6UH      -0.118000
      4 C7          -4.4230    -3.2560     1.4840 ca         1 6UH      -0.118000
      5 C9          -2.6600     1.2390    -0.0070 cc         1 6UH      -0.081400
      6 C10         -0.2420     1.7310    -0.4920 c          1 6UH       0.663100
      7 C11          2.2520     1.8330    -0.5670 c3         1 6UH       0.152300
      8 C12          3.4380     1.0860     0.0450 ca         1 6UH      -0.060300
      9 C13          4.0360     1.6460     1.1930 ca         1 6UH      -0.115000
     10 C15          5.6300    -0.1770     1.2970 ca         1 6UH      -0.109000
     11 F2           3.8730    -2.0050    -2.0220 f          1 6UH      -0.110333
     12 F            3.4980    -0.0370    -2.8410 f          1 6UH      -0.110333
     13 F1           1.9980    -1.0140    -1.6020 f          1 6UH      -0.110333
     14 C17          3.9410    -0.1380    -0.4860 ca         1 6UH      -0.173300
     15 C16          5.0450    -0.7510     0.1570 ca         1 6UH      -0.068000
     16 C14          5.1250     1.0210     1.8170 ca         1 6UH      -0.082000
     17 N2           0.9850     1.3570    -0.0160 ns         1 6UH      -0.527900
     18 O1          -0.3800     2.5160    -1.4120 o          1 6UH      -0.616100
     19 N1          -1.2730     1.0920     0.1570 ns         1 6UH      -0.413100
     20 C1          -3.3530     2.3740    -0.3340 cd         1 6UH       0.201300
     21 C           -2.9220     3.7970    -0.5790 c3         1 6UH      -0.130400
     22 N           -4.8990     0.7670     0.1160 nd         1 6UH      -0.357300
     23 O           -4.6960     2.1270    -0.2830 os         1 6UH      -0.063700
     24 C8          -4.5640    -1.8950     1.1630 ca         1 6UH      -0.081000
     25 C6          -3.2050    -3.9110     1.2560 ca         1 6UH      -0.097000
     26 C4          -2.2710    -1.8430     0.3720 ca         1 6UH      -0.081000
     27 H1          -1.1960    -3.7170     0.4890 ha         1 6UH       0.115500
     28 H2          -5.2620    -3.8030     1.9090 ha         1 6UH       0.115500
     29 H3           2.3440     2.9070    -0.3550 h1         1 6UH       0.071700
     30 H4           2.2400     1.7230    -1.6580 h1         1 6UH       0.071700
     31 H5           3.6510     2.5760     1.6070 ha         1 6UH       0.118000
     32 H6           6.4760    -0.6630     1.7770 ha         1 6UH       0.124000
     33 H7           5.4650    -1.6820    -0.2190 ha         1 6UH       0.134000
     34 H8           5.5760     1.4660     2.7010 ha         1 6UH       0.121000
     35 H9           1.0180     0.7040     0.7540 hn         1 6UH       0.310500
     36 H10         -0.9610     0.3680     0.7920 hn         1 6UH       0.321500
     37 H11         -2.6400     3.9460    -1.6270 hc         1 6UH       0.065033
     38 H12         -3.7340     4.4970    -0.3510 hc         1 6UH       0.065033
     39 H13         -2.0690     4.0670     0.0530 hc         1 6UH       0.065033
     40 H14         -5.5230    -1.4170     1.3550 ha         1 6UH       0.127000
     41 H15         -3.0970    -4.9660     1.5010 ha         1 6UH       0.113000
     42 H16         -1.4320    -1.3580    -0.1150 ha         1 6UH       0.127000
     43 C18          3.3260    -0.8000    -1.7380 c3         1 6UH       0.356300
@<TRIPOS>BOND
     1     1     2 1   
     2     1     5 1   
     3     1    22 2   
     4     2    24 ar  
     5     2    26 ar  
     6     3    25 ar  
     7     3    26 ar  
     8     3    27 1   
     9     4    24 ar  
    10     4    25 ar  
    11     4    28 1   
    12     5    19 1   
    13     5    20 2   
    14     6    17 1   
    15     6    18 2   
    16     6    19 1   
    17     7     8 1   
    18     7    17 1   
    19     7    29 1   
    20     7    30 1   
    21     8     9 ar  
    22     8    14 ar  
    23     9    16 ar  
    24     9    31 1   
    25    10    15 ar  
    26    10    16 ar  
    27    10    32 1   
    28    11    43 1   
    29    12    43 1   
    30    13    43 1   
    31    14    15 ar  
    32    14    43 1   
    33    15    33 1   
    34    16    34 1   
    35    17    35 1   
    36    19    36 1   
    37    20    21 1   
    38    20    23 1   
    39    21    37 1   
    40    21    38 1   
    41    21    39 1   
    42    22    23 1   
    43    24    40 1   
    44    25    41 1   
    45    26    42 1   
@<TRIPOS>SUBSTRUCTURE
     1 6UH         1 TEMP              0 ****  ****    0 ROOT
