@<TRIPOS>MOLECULE
6UH
   43    45     1     0     0
SMALL
bcc


@<TRIPOS>ATOM
      1 C2          -3.4080     0.1700    -0.0640 cc         1 6UH       0.393800
      2 C3          -3.1590    -1.1900     0.4260 ca         1 6UH      -0.142500
      3 C5          -1.6580    -3.0280     0.8660 ca         1 6UH      -0.136000
      4 C7          -3.9990    -3.2570     1.3500 ca         1 6UH      -0.136000
      5 C9          -2.5680     1.3200    -0.0010 cc         1 6UH      -0.212000
      6 C10         -0.2080     1.7500    -0.2660 c          1 6UH       0.797100
      7 C11          2.2320     2.0510    -0.2510 c3         1 6UH       0.152300
      8 C12          3.3080     1.0680     0.1530 ca         1 6UH      -0.060300
      9 C13          4.1490     1.4380     1.1960 ca         1 6UH      -0.133000
     10 C15          5.3110    -0.6530     1.0960 ca         1 6UH      -0.127000
     11 F2           2.9720    -1.8880    -1.9880 f          1 6UH      -0.231633
     12 F            2.7800     0.1430    -2.6480 f          1 6UH      -0.231633
     13 F1           1.3430    -0.6900    -1.2800 f          1 6UH      -0.231633
     14 C17          3.4920    -0.1980    -0.4250 ca         1 6UH      -0.173300
     15 C16          4.4890    -1.0430     0.0470 ca         1 6UH      -0.086000
     16 C14          5.1420     0.5930     1.6710 ca         1 6UH      -0.100000
     17 N2           0.9750     1.7440     0.3900 ns         1 6UH      -0.594900
     18 O1          -0.3320     2.0240    -1.4490 o          1 6UH      -0.616100
     19 N1          -1.2850     1.4240     0.5240 ns         1 6UH      -0.480100
     20 C1          -3.3160     2.3080    -0.5560 cd         1 6UH       0.311000
     21 C           -3.0490     3.7400    -0.8020 c3         1 6UH      -0.130400
     22 N           -4.5510     0.4740    -0.6140 nd         1 6UH      -0.357300
     23 O           -4.4870     1.7960    -0.9340 os         1 6UH      -0.108100
     24 C8          -4.2200    -1.9650     0.8990 ca         1 6UH      -0.099000
     25 C6          -2.7170    -3.7920     1.3370 ca         1 6UH      -0.115000
     26 C4          -1.8750    -1.7340     0.4140 ca         1 6UH      -0.099000
     27 H1          -0.6570    -3.4390     0.8490 ha         1 6UH       0.133500
     28 H2          -4.8300    -3.8450     1.7160 ha         1 6UH       0.133500
     29 H3           2.5660     3.0540     0.0290 h1         1 6UH       0.071700
     30 H4           2.0710     2.0740    -1.3260 h1         1 6UH       0.071700
     31 H5           4.0230     2.4160     1.6450 ha         1 6UH       0.136000
     32 H6           6.0800    -1.3250     1.4520 ha         1 6UH       0.142000
     33 H7           4.6430    -2.0170    -0.3940 ha         1 6UH       0.152000
     34 H8           5.7790     0.9130     2.4850 ha         1 6UH       0.139000
     35 H9           0.9930     1.5930     1.3860 hn         1 6UH       0.310500
     36 H10         -1.1390     1.1300     1.4770 hn         1 6UH       0.321500
     37 H11         -2.7310     3.9100    -1.8320 hc         1 6UH       0.065033
     38 H12         -3.9340     4.3450    -0.6150 hc         1 6UH       0.065033
     39 H13         -2.2500     4.0830    -0.1480 hc         1 6UH       0.065033
     40 H14         -5.2190    -1.5510     0.9240 ha         1 6UH       0.145000
     41 H15         -2.5430    -4.7990     1.6920 ha         1 6UH       0.131000
     42 H16         -1.0400    -1.1610     0.0360 ha         1 6UH       0.145000
     43 C18          2.6490    -0.6580    -1.5790 c3         1 6UH       0.720200
@<TRIPOS>BOND
     1     1     2 1   
     2     1     5 1   
     3     1    22 2   
     4     2    24 ar  
     5     2    26 ar  
     6     3    25 ar  
     7     3    26 ar  
     8     3    27 1   
     9     4    24 ar  
    10     4    25 ar  
    11     4    28 1   
    12     5    19 1   
    13     5    20 2   
    14     6    17 1   
    15     6    18 2   
    16     6    19 1   
    17     7     8 1   
    18     7    17 1   
    19     7    29 1   
    20     7    30 1   
    21     8     9 ar  
    22     8    14 ar  
    23     9    16 ar  
    24     9    31 1   
    25    10    15 ar  
    26    10    16 ar  
    27    10    32 1   
    28    11    43 1   
    29    12    43 1   
    30    13    43 1   
    31    14    15 ar  
    32    14    43 1   
    33    15    33 1   
    34    16    34 1   
    35    17    35 1   
    36    19    36 1   
    37    20    21 1   
    38    20    23 1   
    39    21    37 1   
    40    21    38 1   
    41    21    39 1   
    42    22    23 1   
    43    24    40 1   
    44    25    41 1   
    45    26    42 1   
@<TRIPOS>SUBSTRUCTURE
     1 6UH         1 TEMP              0 ****  ****    0 ROOT
