@<TRIPOS>MOLECULE
6UI
   38    41     1     0     0
SMALL
No Charge or Current Charge


@<TRIPOS>ATOM
      1 CAW          6.9000    -0.6310    -0.5170 c3         1 6UI       0.150900
      2 OAV          5.7270    -1.0420     0.2080 os         1 6UI      -0.344100
      3 CAS          4.5090    -0.4120     0.0540 ca         1 6UI       0.143100
      4 CAR          3.4250    -0.8900     0.8090 ca         1 6UI      -0.153000
      5 CAT          4.3220     0.6790    -0.8210 ca         1 6UI      -0.183000
      6 CAU          3.0570     1.2830    -0.9360 ca         1 6UI      -0.056000
      7 CAP          1.9720     0.8000    -0.1810 ca         1 6UI      -0.076000
      8 CAQ          0.7040     1.4010    -0.2950 ca         1 6UI      -0.051000
      9 CAO          2.1580    -0.2890     0.6960 ca         1 6UI       0.005000
     10 CAN          1.0760    -0.7640     1.4590 ca         1 6UI      -0.115000
     11 CAM         -0.1880    -0.1620     1.3420 ca         1 6UI      -0.086000
     12 CAL         -0.3900     0.9070     0.4440 ca         1 6UI      -0.128500
     13 CAK         -1.6950     1.5640     0.3530 cc         1 6UI       0.330500
     14 NAJ         -1.8520     2.9100     0.4990 nc         1 6UI      -0.670000
     15 CAI         -3.1580     3.1180     0.4250 cd         1 6UI       0.402400
     16 NAH         -3.8280     1.9220     0.2320 na         1 6UI      -0.289500
     17 CAG         -2.8880     0.8980     0.1650 cd         1 6UI      -0.159000
     18 CAF         -3.1960    -0.5080    -0.1850 ca         1 6UI       0.032000
     19 CAA         -4.5130    -0.9920    -0.0570 ca         1 6UI      -0.158500
     20 CAB         -4.8070    -2.3230    -0.3980 ca         1 6UI       0.336900
     21 NAC         -3.8790    -3.1850    -0.8670 nb         1 6UI      -0.661000
     22 CAD         -2.6180    -2.7230    -1.0140 ca         1 6UI       0.336900
     23 CAE         -2.2390    -1.4090    -0.6940 ca         1 6UI      -0.158500
     24 HAW1         7.1590     0.4090    -0.2830 h1         1 6UI       0.040033
     25 HAW2         7.7550    -1.2640    -0.2460 h1         1 6UI       0.040033
     26 HAW3         6.7410    -0.7200    -1.5990 h1         1 6UI       0.040033
     27 HAR          3.5740    -1.7290     1.4830 ha         1 6UI       0.128000
     28 HAT          5.1410     1.0720    -1.4170 ha         1 6UI       0.116000
     29 HAU          2.9220     2.1230    -1.6140 ha         1 6UI       0.114000
     30 HAQ          0.5620     2.2460    -0.9650 ha         1 6UI       0.127000
     31 HAN          1.2130    -1.5950     2.1460 ha         1 6UI       0.116000
     32 HAM         -1.0140    -0.5280     1.9470 ha         1 6UI       0.116000
     33 HAI         -3.6750     4.0690     0.4950 h5         1 6UI       0.059100
     34 HAH         -4.8300     1.8370     0.1170 hn         1 6UI       0.356000
     35 HAA         -5.3110    -0.3600     0.3210 ha         1 6UI       0.128000
     36 HAE         -1.2160    -1.1110    -0.8860 ha         1 6UI       0.128000
     37 HAB         -5.8190    -2.7110    -0.2900 h4         1 6UI       0.021100
     38 HAD         -1.8880    -3.4270    -1.4120 h4         1 6UI       0.021100
@<TRIPOS>BOND
     1     1     2 1   
     2     1    24 1   
     3     1    25 1   
     4     1    26 1   
     5     2     3 1   
     6     3     4 ar  
     7     3     5 ar  
     8     4     9 ar  
     9     4    27 1   
    10     5     6 ar  
    11     5    28 1   
    12     6     7 ar  
    13     6    29 1   
    14     7     8 ar  
    15     7     9 ar  
    16     8    12 ar  
    17     8    30 1   
    18     9    10 ar  
    19    10    11 ar  
    20    10    31 1   
    21    11    12 ar  
    22    11    32 1   
    23    12    13 1   
    24    13    14 1   
    25    13    17 2   
    26    14    15 2   
    27    15    16 1   
    28    15    33 1   
    29    16    17 1   
    30    16    34 1   
    31    17    18 1   
    32    18    19 ar  
    33    18    23 ar  
    34    19    20 ar  
    35    19    35 1   
    36    20    21 ar  
    37    20    37 1   
    38    21    22 ar  
    39    22    23 ar  
    40    22    38 1   
    41    23    36 1   
@<TRIPOS>SUBSTRUCTURE
     1 6UI         1 TEMP              0 ****  ****    0 ROOT
