@<TRIPOS>MOLECULE
6UI
   38    41     1     0     0
SMALL
bcc


@<TRIPOS>ATOM
      1 CAW          6.9530    -0.4220    -0.3210 c3         1 6UI       0.127700
      2 OAV          5.7920    -1.0030     0.2410 os         1 6UI      -0.320900
      3 CAS          4.6090    -0.3800     0.0870 ca         1 6UI       0.143100
      4 CAR          3.5070    -0.9850     0.6490 ca         1 6UI      -0.171000
      5 CAT          4.4590     0.8420    -0.6120 ca         1 6UI      -0.201000
      6 CAU          3.2230     1.4190    -0.7270 ca         1 6UI      -0.074000
      7 CAP          2.0760     0.8230    -0.1620 ca         1 6UI      -0.076000
      8 CAQ          0.7940     1.4050    -0.2760 ca         1 6UI      -0.069000
      9 CAO          2.2310    -0.4030     0.5360 ca         1 6UI       0.005000
     10 CAN          1.0790    -0.9960     1.1100 ca         1 6UI      -0.133000
     11 CAM         -0.1480    -0.4110     0.9850 ca         1 6UI      -0.104000
     12 CAL         -0.3140     0.8050     0.2700 ca         1 6UI      -0.128500
     13 CAK         -1.6300     1.4390     0.1520 cc         1 6UI       0.395800
     14 NAJ         -1.7590     2.7970     0.2160 nc         1 6UI      -0.670000
     15 CAI         -3.0410     3.0420     0.1280 cd         1 6UI       0.402400
     16 NAH         -3.7520     1.9100     0.0160 na         1 6UI      -0.289900
     17 CAG         -2.8760     0.8580     0.0090 cd         1 6UI      -0.173600
     18 CAF         -3.3240    -0.5160    -0.1680 ca         1 6UI       0.032000
     19 CAA         -4.5360    -0.9580     0.3610 ca         1 6UI      -0.241800
     20 CAB         -4.9280    -2.2690     0.1470 ca         1 6UI       0.401700
     21 NAC         -4.2100    -3.1510    -0.5390 nb         1 6UI      -0.661000
     22 CAD         -3.0570    -2.7290    -1.0460 ca         1 6UI       0.401700
     23 CAE         -2.5750    -1.4400    -0.8970 ca         1 6UI      -0.241800
     24 HAW1         7.1560     0.5690     0.0910 h1         1 6UI       0.040033
     25 HAW2         7.7790    -1.0810    -0.0650 h1         1 6UI       0.040033
     26 HAW3         6.8890    -0.3470    -1.4090 h1         1 6UI       0.040033
     27 HAR          3.6230    -1.9190     1.1870 ha         1 6UI       0.146000
     28 HAT          5.3110     1.3340    -1.0610 ha         1 6UI       0.134000
     29 HAU          3.1210     2.3530    -1.2650 ha         1 6UI       0.132000
     30 HAQ          0.6920     2.3380    -0.8170 ha         1 6UI       0.145000
     31 HAN          1.1830    -1.9180     1.6690 ha         1 6UI       0.134000
     32 HAM         -1.0050    -0.8720     1.4580 ha         1 6UI       0.134000
     33 HAI         -3.5040     4.0170     0.1410 h5         1 6UI       0.059100
     34 HAH         -4.7520     1.8540    -0.1070 hn         1 6UI       0.305700
     35 HAA         -5.1670    -0.3040     0.9500 ha         1 6UI       0.146000
     36 HAE         -1.6380    -1.1620    -1.3610 ha         1 6UI       0.146000
     37 HAB         -5.8670    -2.6220     0.5600 h4         1 6UI       0.021100
     38 HAD         -2.4820    -3.4530    -1.6130 h4         1 6UI       0.021100
@<TRIPOS>BOND
     1     1     2 1   
     2     1    24 1   
     3     1    25 1   
     4     1    26 1   
     5     2     3 1   
     6     3     4 ar  
     7     3     5 ar  
     8     4     9 ar  
     9     4    27 1   
    10     5     6 ar  
    11     5    28 1   
    12     6     7 ar  
    13     6    29 1   
    14     7     8 ar  
    15     7     9 ar  
    16     8    12 ar  
    17     8    30 1   
    18     9    10 ar  
    19    10    11 ar  
    20    10    31 1   
    21    11    12 ar  
    22    11    32 1   
    23    12    13 1   
    24    13    14 1   
    25    13    17 2   
    26    14    15 2   
    27    15    16 1   
    28    15    33 1   
    29    16    17 1   
    30    16    34 1   
    31    17    18 1   
    32    18    19 ar  
    33    18    23 ar  
    34    19    20 ar  
    35    19    35 1   
    36    20    21 ar  
    37    20    37 1   
    38    21    22 ar  
    39    22    23 ar  
    40    22    38 1   
    41    23    36 1   
@<TRIPOS>SUBSTRUCTURE
     1 6UI         1 TEMP              0 ****  ****    0 ROOT
