@<TRIPOS>MOLECULE
6UJ
   45    48     1     0     0
SMALL
abcg2


@<TRIPOS>ATOM
      1 C2          -2.0800     2.1110     1.1020 ca         1 6UJ       0.120900
      2 C3          -1.9800     0.8250     0.5790 ca         1 6UJ      -0.124000
      3 C5           2.6850     0.1200    -0.5840 ca         1 6UJ      -0.022000
      4 C7           4.1150     0.9360    -2.3490 ca         1 6UJ      -0.092000
      5 C9           5.1180     0.1020    -0.3210 ca         1 6UJ      -0.026000
      6 C10          6.2620    -0.1920     0.4580 ca         1 6UJ      -0.096000
      7 C11          6.1410    -0.7020     1.7210 ca         1 6UJ      -0.106000
      8 C12          4.8620    -0.9320     2.2670 ca         1 6UJ      -0.104000
      9 C13          3.7360    -0.6620     1.5380 ca         1 6UJ      -0.104000
     10 C15         -3.1770     0.2310     0.1760 cp         1 6UJ       0.149500
     11 C18         -2.4970    -2.8270    -1.9370 ca         1 6UJ      -0.117500
     12 C20         -4.3420    -3.2850    -0.4670 ca         1 6UJ      -0.117500
     13 C21         -4.2390    -2.0080     0.0620 ca         1 6UJ      -0.083000
     14 O            0.4240     1.8260    -0.4460 o          1 6UJ      -0.601100
     15 C4           0.3700     0.6820    -0.0340 c          1 6UJ       0.659100
     16 N2           1.4130    -0.1950    -0.0760 ns         1 6UJ      -0.178000
     17 C14          3.8290    -0.1520     0.2200 ca         1 6UJ      -0.049000
     18 C8           5.2340     0.6580    -1.6150 ca         1 6UJ      -0.106000
     19 C6           2.8350     0.6500    -1.8400 ca         1 6UJ      -0.101000
     20 N1          -0.7610     0.1460     0.5290 ns         1 6UJ      -0.167000
     21 N           -3.2300     2.7510     1.2030 nb         1 6UJ      -0.167000
     22 N3          -4.3340     0.8720     0.3260 nb         1 6UJ      -0.174000
     23 C1          -4.3270     2.1000     0.8160 ca         1 6UJ       0.129300
     24 C           -5.6310     2.8210     0.9360 c3         1 6UJ      -0.131400
     25 C16         -3.2500    -1.1340    -0.3900 cp         1 6UJ      -0.161500
     26 C19         -3.4720    -3.6980    -1.4680 ca         1 6UJ      -0.096000
     27 C17         -2.3820    -1.5540    -1.3980 ca         1 6UJ      -0.083000
     28 H1          -1.1980     2.6260     1.4620 h4         1 6UJ       0.044100
     29 H2           4.2050     1.3620    -3.3400 ha         1 6UJ       0.119000
     30 H3           7.2410    -0.0010     0.0360 ha         1 6UJ       0.115000
     31 H4           7.0240    -0.9220     2.3070 ha         1 6UJ       0.115000
     32 H5           4.7700    -1.3190     3.2730 ha         1 6UJ       0.113000
     33 H6           2.7670    -0.8330     1.9870 ha         1 6UJ       0.107000
     34 H7          -1.8260    -3.1360    -2.7270 ha         1 6UJ       0.116500
     35 H8          -5.1040    -3.9580    -0.0980 ha         1 6UJ       0.116500
     36 H9          -4.9240    -1.6880     0.8370 ha         1 6UJ       0.124000
     37 H10          1.3090    -1.0940     0.3690 hn         1 6UJ       0.154000
     38 H11          6.2200     0.8610    -2.0140 ha         1 6UJ       0.116000
     39 H12          1.9660     0.8350    -2.4560 ha         1 6UJ       0.130000
     40 H13         -0.7880    -0.8450     0.7200 hn         1 6UJ       0.157000
     41 H14         -5.7130     3.5850     0.1610 hc         1 6UJ       0.059700
     42 H15         -6.4690     2.1370     0.8280 hc         1 6UJ       0.059700
     43 H16         -5.7050     3.3300     1.8970 hc         1 6UJ       0.059700
     44 H17         -3.5550    -4.6940    -1.8830 ha         1 6UJ       0.115000
     45 H18         -1.6320    -0.8810    -1.7920 ha         1 6UJ       0.124000
@<TRIPOS>BOND
     1     1     2 ar  
     2     1    21 ar  
     3     1    28 1   
     4     2    10 ar  
     5     2    20 1   
     6     3    16 1   
     7     3    17 ar  
     8     3    19 ar  
     9     4    18 ar  
    10     4    19 ar  
    11     4    29 1   
    12     5     6 ar  
    13     5    17 ar  
    14     5    18 ar  
    15     6     7 ar  
    16     6    30 1   
    17     7     8 ar  
    18     7    31 1   
    19     8     9 ar  
    20     8    32 1   
    21     9    17 ar  
    22     9    33 1   
    23    10    22 ar  
    24    10    25 1   
    25    11    26 ar  
    26    11    27 ar  
    27    11    34 1   
    28    12    13 ar  
    29    12    26 ar  
    30    12    35 1   
    31    13    25 ar  
    32    13    36 1   
    33    14    15 2   
    34    15    16 1   
    35    15    20 1   
    36    16    37 1   
    37    18    38 1   
    38    19    39 1   
    39    20    40 1   
    40    21    23 ar  
    41    22    23 ar  
    42    23    24 1   
    43    24    41 1   
    44    24    42 1   
    45    24    43 1   
    46    25    27 ar  
    47    26    44 1   
    48    27    45 1   
@<TRIPOS>SUBSTRUCTURE
     1 6UJ         1 TEMP              0 ****  ****    0 ROOT
