@<TRIPOS>MOLECULE
6UJ
   45    48     1     0     0
SMALL
No Charge or Current Charge


@<TRIPOS>ATOM
      1 C2          -2.5210     2.6590     0.1390 ca         1 6UJ       0.120900
      2 C3          -2.1880     1.2890     0.0560 ca         1 6UJ      -0.124000
      3 C5           2.8170     0.7440    -0.4880 ca         1 6UJ      -0.022000
      4 C7           4.6840     2.0150    -1.4350 ca         1 6UJ      -0.092000
      5 C9           5.1180    -0.0910    -0.3030 ca         1 6UJ      -0.026000
      6 C10          6.0380    -1.0650     0.1310 ca         1 6UJ      -0.096000
      7 C11          5.5910    -2.2020     0.8210 ca         1 6UJ      -0.106000
      8 C12          4.2230    -2.3690     1.0810 ca         1 6UJ      -0.104000
      9 C13          3.2990    -1.4010     0.6520 ca         1 6UJ      -0.104000
     10 C15         -3.2550     0.3480     0.1010 cp         1 6UJ       0.149500
     11 C18         -2.0690    -3.1120    -1.0580 ca         1 6UJ      -0.117500
     12 C20         -3.5320    -3.3960     0.8610 ca         1 6UJ      -0.117500
     13 C21         -3.7080    -2.0040     0.9330 ca         1 6UJ      -0.083000
     14 O            0.4440     2.6470    -0.5380 o          1 6UJ      -0.601100
     15 C4           0.3510     1.4500    -0.2920 c          1 6UJ       0.659100
     16 N2           1.4230     0.5720    -0.2410 ns         1 6UJ      -0.178000
     17 C14          3.7330    -0.2490    -0.0470 ca         1 6UJ      -0.049000
     18 C8           5.5870     1.0400    -0.9920 ca         1 6UJ      -0.106000
     19 C6           3.3100     1.8690    -1.1890 ca         1 6UJ      -0.101000
     20 N1          -0.8480     0.8070    -0.0230 ns         1 6UJ      -0.167000
     21 N           -3.7990     3.0680     0.2640 nb         1 6UJ      -0.167000
     22 N3          -4.5260     0.7760     0.2470 nb         1 6UJ      -0.174000
     23 C1          -4.7430     2.1050     0.3110 ca         1 6UJ       0.129300
     24 C           -6.1830     2.5600     0.4710 c3         1 6UJ      -0.131400
     25 C16         -3.0580    -1.1360     0.0190 cp         1 6UJ      -0.161500
     26 C19         -2.7090    -3.9510    -0.1320 ca         1 6UJ      -0.096000
     27 C17         -2.2440    -1.7200    -0.9860 ca         1 6UJ      -0.083000
     28 H1          -1.7720     3.4470     0.1320 h4         1 6UJ       0.044100
     29 H2           5.0480     2.8860    -1.9760 ha         1 6UJ       0.119000
     30 H3           7.1010    -0.9420    -0.0660 ha         1 6UJ       0.115000
     31 H4           6.3050    -2.9530     1.1550 ha         1 6UJ       0.115000
     32 H5           3.8770    -3.2500     1.6180 ha         1 6UJ       0.113000
     33 H6           2.2480    -1.5650     0.8770 ha         1 6UJ       0.107000
     34 H7          -1.4400    -3.5410    -1.8360 ha         1 6UJ       0.116500
     35 H8          -4.0330    -4.0450     1.5760 ha         1 6UJ       0.116500
     36 H9          -4.3460    -1.5910     1.7130 ha         1 6UJ       0.124000
     37 H10          1.1700    -0.3750     0.0090 hn         1 6UJ       0.154000
     38 H11          6.6490     1.1630    -1.1890 ha         1 6UJ       0.116000
     39 H12          2.6410     2.6350    -1.5670 ha         1 6UJ       0.130000
     40 H13         -0.7620    -0.1880     0.1420 hn         1 6UJ       0.157000
     41 H14         -6.3480     3.5430     0.0110 hc         1 6UJ       0.059700
     42 H15         -6.8810     1.8570     0.0000 hc         1 6UJ       0.059700
     43 H16         -6.4510     2.6380     1.5310 hc         1 6UJ       0.059700
     44 H17         -2.5740    -5.0290    -0.1890 ha         1 6UJ       0.115000
     45 H18         -1.7580    -1.0890    -1.7280 ha         1 6UJ       0.124000
@<TRIPOS>BOND
     1     1     2 ar  
     2     1    21 ar  
     3     1    28 1   
     4     2    10 ar  
     5     2    20 1   
     6     3    16 1   
     7     3    17 ar  
     8     3    19 ar  
     9     4    18 ar  
    10     4    19 ar  
    11     4    29 1   
    12     5     6 ar  
    13     5    17 ar  
    14     5    18 ar  
    15     6     7 ar  
    16     6    30 1   
    17     7     8 ar  
    18     7    31 1   
    19     8     9 ar  
    20     8    32 1   
    21     9    17 ar  
    22     9    33 1   
    23    10    22 ar  
    24    10    25 1   
    25    11    26 ar  
    26    11    27 ar  
    27    11    34 1   
    28    12    13 ar  
    29    12    26 ar  
    30    12    35 1   
    31    13    25 ar  
    32    13    36 1   
    33    14    15 2   
    34    15    16 1   
    35    15    20 1   
    36    16    37 1   
    37    18    38 1   
    38    19    39 1   
    39    20    40 1   
    40    21    23 ar  
    41    22    23 ar  
    42    23    24 1   
    43    24    41 1   
    44    24    42 1   
    45    24    43 1   
    46    25    27 ar  
    47    26    44 1   
    48    27    45 1   
@<TRIPOS>SUBSTRUCTURE
     1 6UJ         1 TEMP              0 ****  ****    0 ROOT
