@<TRIPOS>MOLECULE
6UK
   45    47     1     0     0
SMALL
bcc


@<TRIPOS>ATOM
      1 C2          -2.9680     2.5370     0.0040 ca         1 6UK       0.448200
      2 C3          -4.9090     1.5840    -0.6680 ca         1 6UK       0.653300
      3 C5          -0.0470     1.7300     0.3710 c          1 6UK       0.796100
      4 C7           3.3910     0.7080     0.6750 ca         1 6UK      -0.062300
      5 C9           5.0400    -0.4520     2.0260 ca         1 6UK      -0.100000
      6 C10          5.2140    -1.3930     1.0250 ca         1 6UK      -0.127000
      7 C11          4.4860    -1.2860    -0.1510 ca         1 6UK      -0.086000
      8 C12          3.5770    -0.2500    -0.3320 ca         1 6UK      -0.173300
      9 C13          2.8300    -0.1660    -1.6320 c3         1 6UK       0.720200
     10 C15         -3.7590    -2.0290     1.1000 ca         1 6UK      -0.101000
     11 C18         -1.2920    -3.0180     0.3030 ca         1 6UK      -0.136000
     12 F2           1.5000    -0.1950    -1.4620 f          1 6UK      -0.232300
     13 F            3.1080     0.9650    -2.2990 f          1 6UK      -0.232300
     14 F1           3.1260    -1.1740    -2.4580 f          1 6UK      -0.232300
     15 C8           4.1370     0.5850     1.8420 ca         1 6UK      -0.132000
     16 C6           2.3980     1.8470     0.6070 c3         1 6UK       0.152300
     17 N3           1.0880     1.4140     1.0320 ns         1 6UK      -0.590900
     18 O           -0.0890     2.4440    -0.6180 o          1 6UK      -0.614100
     19 N2          -1.1790     1.1710     0.9220 ns         1 6UK      -0.491100
     20 C1          -2.4390     1.2940     0.3380 ca         1 6UK      -0.157000
     21 C           -3.2700     0.1950     0.1160 cp         1 6UK       0.476800
     22 N1          -4.5030     0.3630    -0.3610 nb         1 6UK      -0.699000
     23 C4          -6.2880     1.7550    -1.2200 c3         1 6UK      -0.130400
     24 N           -4.1750     2.6840    -0.5100 nb         1 6UK      -0.694000
     25 C14         -2.8680    -1.1940     0.4270 cp         1 6UK      -0.161500
     26 C19         -1.6320    -1.7020     0.0270 ca         1 6UK      -0.101000
     27 C17         -2.1750    -3.8370     0.9930 ca         1 6UK      -0.116000
     28 C16         -3.4100    -3.3400     1.3890 ca         1 6UK      -0.136000
     29 H1          -2.3940     3.4400     0.1730 h4         1 6UK       0.042100
     30 H2           5.6050    -0.5200     2.9460 ha         1 6UK       0.140000
     31 H3           5.9150    -2.2060     1.1490 ha         1 6UK       0.142000
     32 H4           4.6430    -2.0250    -0.9240 ha         1 6UK       0.152000
     33 H5          -4.7240    -1.6470     1.4060 ha         1 6UK       0.145000
     34 H6          -0.3350    -3.4030    -0.0250 ha         1 6UK       0.134000
     35 H7           4.0060     1.3210     2.6250 ha         1 6UK       0.137000
     36 H8           2.7590     2.6530     1.2520 h1         1 6UK       0.072700
     37 H9           2.3150     2.2730    -0.3890 h1         1 6UK       0.072700
     38 H10          1.0340     0.8980     1.8950 hn         1 6UK       0.312500
     39 H11         -1.0710     0.4440     1.6150 hn         1 6UK       0.321500
     40 H12         -6.9060     2.3320    -0.5310 hc         1 6UK       0.058700
     41 H13         -6.2600     2.3040    -2.1620 hc         1 6UK       0.058700
     42 H14         -6.7660     0.7930    -1.3880 hc         1 6UK       0.058700
     43 H15         -0.9410    -1.0820    -0.5290 ha         1 6UK       0.145000
     44 H16         -1.9070    -4.8610     1.2160 ha         1 6UK       0.131000
     45 H17         -4.1050    -3.9740     1.9250 ha         1 6UK       0.134000
@<TRIPOS>BOND
     1     1    20 ar  
     2     1    24 ar  
     3     1    29 1   
     4     2    22 ar  
     5     2    23 1   
     6     2    24 ar  
     7     3    17 1   
     8     3    18 2   
     9     3    19 1   
    10     4     8 ar  
    11     4    15 ar  
    12     4    16 1   
    13     5     6 ar  
    14     5    15 ar  
    15     5    30 1   
    16     6     7 ar  
    17     6    31 1   
    18     7     8 ar  
    19     7    32 1   
    20     8     9 1   
    21     9    12 1   
    22     9    13 1   
    23     9    14 1   
    24    10    25 ar  
    25    10    28 ar  
    26    10    33 1   
    27    11    26 ar  
    28    11    27 ar  
    29    11    34 1   
    30    15    35 1   
    31    16    17 1   
    32    16    36 1   
    33    16    37 1   
    34    17    38 1   
    35    19    20 1   
    36    19    39 1   
    37    20    21 ar  
    38    21    22 ar  
    39    21    25 1   
    40    23    40 1   
    41    23    41 1   
    42    23    42 1   
    43    25    26 ar  
    44    26    43 1   
    45    27    28 ar  
    46    27    44 1   
    47    28    45 1   
@<TRIPOS>SUBSTRUCTURE
     1 6UK         1 TEMP              0 ****  ****    0 ROOT
