@<TRIPOS>MOLECULE
6UK
   45    47     1     0     0
SMALL
No Charge or Current Charge


@<TRIPOS>ATOM
      1 C2          -3.0630     2.5910    -0.1860 ca         1 6UK       0.119900
      2 C3          -5.1850     1.7220    -0.3160 ca         1 6UK       0.127300
      3 C5          -0.0420     1.7940     0.0620 c          1 6UK       0.662100
      4 C7           3.5190     0.6920     0.6790 ca         1 6UK      -0.062300
      5 C9           4.9760    -0.1660     2.4480 ca         1 6UK      -0.082000
      6 C10          5.4840    -1.1290     1.5680 ca         1 6UK      -0.109000
      7 C11          5.0150    -1.1920     0.2470 ca         1 6UK      -0.068000
      8 C12          4.0260    -0.2910    -0.2210 ca         1 6UK      -0.173300
      9 C13          3.5360    -0.3920    -1.6820 c3         1 6UK       0.356300
     10 C15         -3.8020    -2.0230     1.2330 ca         1 6UK      -0.083000
     11 C18         -1.6330    -3.1420    -0.1560 ca         1 6UK      -0.118000
     12 F2           2.1930    -0.5320    -1.7620 f          1 6UK      -0.111000
     13 F            3.8670     0.7070    -2.3970 f          1 6UK      -0.111000
     14 F1           4.0620    -1.4470    -2.3460 f          1 6UK      -0.111000
     15 C8           4.0000     0.7370     2.0040 ca         1 6UK      -0.114000
     16 C6           2.4510     1.7110     0.2820 c3         1 6UK       0.152300
     17 N3           1.1070     1.1690     0.4760 ns         1 6UK      -0.523900
     18 O           -0.0340     2.8890    -0.4790 o          1 6UK      -0.614100
     19 N2          -1.1740     1.0390     0.3120 ns         1 6UK      -0.165000
     20 C1          -2.5510     1.2980     0.0570 ca         1 6UK      -0.119000
     21 C           -3.4760     0.2160     0.0880 cp         1 6UK       0.148500
     22 N1          -4.7930     0.4520    -0.0830 nb         1 6UK      -0.173000
     23 C4          -6.6720     1.9580    -0.5100 c3         1 6UK      -0.130400
     24 N           -4.3810     2.8040    -0.3760 nb         1 6UK      -0.168000
     25 C14         -3.0790    -1.2110     0.3210 cp         1 6UK      -0.161500
     26 C19         -1.9950    -1.8020    -0.3780 ca         1 6UK      -0.083000
     27 C17         -2.3530    -3.9220     0.7630 ca         1 6UK      -0.098000
     28 C16         -3.4400    -3.3630     1.4550 ca         1 6UK      -0.118000
     29 H1          -2.4310     3.4760    -0.2070 h4         1 6UK       0.042100
     30 H2           5.3380    -0.1190     3.4730 ha         1 6UK       0.122000
     31 H3           6.2430    -1.8300     1.9090 ha         1 6UK       0.124000
     32 H4           5.4330    -1.9530    -0.4100 ha         1 6UK       0.134000
     33 H5          -4.6440    -1.6050     1.7810 ha         1 6UK       0.127000
     34 H6          -0.7990    -3.5770    -0.7010 ha         1 6UK       0.116000
     35 H7           3.6120     1.4790     2.6980 ha         1 6UK       0.119000
     36 H8           2.5560     2.6140     0.8990 h1         1 6UK       0.072700
     37 H9           2.5720     2.0200    -0.7630 h1         1 6UK       0.072700
     38 H10          1.0150     0.2620     0.9130 hn         1 6UK       0.312500
     39 H11         -0.9970     0.1390     0.7370 hn         1 6UK       0.155000
     40 H12         -7.1610     2.1670     0.4490 hc         1 6UK       0.058700
     41 H13         -6.8600     2.8100    -1.1740 hc         1 6UK       0.058700
     42 H14         -7.1640     1.0830    -0.9520 hc         1 6UK       0.058700
     43 H15         -1.4390    -1.2230    -1.1120 ha         1 6UK       0.127000
     44 H16         -2.0740    -4.9600     0.9340 ha         1 6UK       0.113000
     45 H17         -4.0020    -3.9670     2.1630 ha         1 6UK       0.116000
@<TRIPOS>BOND
     1     1    20 ar  
     2     1    24 ar  
     3     1    29 1   
     4     2    22 ar  
     5     2    23 1   
     6     2    24 ar  
     7     3    17 1   
     8     3    18 2   
     9     3    19 1   
    10     4     8 ar  
    11     4    15 ar  
    12     4    16 1   
    13     5     6 ar  
    14     5    15 ar  
    15     5    30 1   
    16     6     7 ar  
    17     6    31 1   
    18     7     8 ar  
    19     7    32 1   
    20     8     9 1   
    21     9    12 1   
    22     9    13 1   
    23     9    14 1   
    24    10    25 ar  
    25    10    28 ar  
    26    10    33 1   
    27    11    26 ar  
    28    11    27 ar  
    29    11    34 1   
    30    15    35 1   
    31    16    17 1   
    32    16    36 1   
    33    16    37 1   
    34    17    38 1   
    35    19    20 1   
    36    19    39 1   
    37    20    21 ar  
    38    21    22 ar  
    39    21    25 1   
    40    23    40 1   
    41    23    41 1   
    42    23    42 1   
    43    25    26 ar  
    44    26    43 1   
    45    27    28 ar  
    46    27    44 1   
    47    28    45 1   
@<TRIPOS>SUBSTRUCTURE
     1 6UK         1 TEMP              0 ****  ****    0 ROOT
