@<TRIPOS>MOLECULE
6UL
  122   121     1     0     0
SMALL
bcc


@<TRIPOS>ATOM
      1 CBP         25.4100    -1.0280     0.0430 c3         1 6UL      -0.088100
      2 CBN         24.1830    -0.1260     0.0410 c3         1 6UL      -0.075400
      3 CAX         22.8760    -0.9100     0.0310 c3         1 6UL      -0.075400
      4 CAY         21.6380    -0.0220     0.0320 c3         1 6UL      -0.074400
      5 CAZ         20.3340    -0.8100     0.0220 c3         1 6UL      -0.074400
      6 CBA         19.0940     0.0760     0.0210 c3         1 6UL      -0.074400
      7 CBB         17.7900    -0.7130     0.0180 c3         1 6UL      -0.074400
      8 CBC         16.5500     0.1730     0.0150 c3         1 6UL      -0.074400
      9 CBD         15.2460    -0.6160     0.0140 c3         1 6UL      -0.074400
     10 CBE         14.0080     0.2720     0.0110 c3         1 6UL      -0.074400
     11 CBF         12.7020    -0.5140     0.0100 c3         1 6UL      -0.074400
     12 CBG         11.4660     0.3760     0.0100 c3         1 6UL      -0.074400
     13 CBH         10.1580    -0.4050    -0.0090 c3         1 6UL      -0.074400
     14 CBI          8.9250     0.4920    -0.0090 c3         1 6UL      -0.074400
     15 CBJ          7.6130    -0.2830    -0.0290 c3         1 6UL      -0.074400
     16 CBK          6.3860     0.6200    -0.0270 c3         1 6UL      -0.074400
     17 CBL          5.0690    -0.1460    -0.0450 c3         1 6UL      -0.074400
     18 CBM          3.8480     0.7650    -0.0450 c3         1 6UL      -0.074400
     19 CAW          2.5250     0.0090    -0.0610 c3         1 6UL      -0.074400
     20 CAV          1.3120     0.9310    -0.0580 c3         1 6UL      -0.075400
     21 CAU         -0.0160     0.1850    -0.0610 c3         1 6UL      -0.073400
     22 CAT         -1.2190     1.1210    -0.0570 c3         1 6UL      -0.075400
     23 CAS         -2.5510     0.3790    -0.0570 c3         1 6UL      -0.083400
     24 CAR         -3.7110     1.3510    -0.0460 c3         1 6UL       0.144400
     25 OAQ         -4.9300     0.5970    -0.0470 os         1 6UL      -0.431900
     26 CAP         -6.0780     1.2640    -0.0070 c          1 6UL       0.643100
     27 OBO         -6.1420     2.4690     0.0260 o          1 6UL      -0.539000
     28 CAO         -7.2600     0.3320    -0.0060 c3         1 6UL      -0.137400
     29 CAN         -8.6020     1.0460     0.0040 c3         1 6UL      -0.068400
     30 CAM         -9.7690     0.0670     0.0080 c3         1 6UL      -0.075400
     31 CAL        -11.1230     0.7630     0.0160 c3         1 6UL      -0.074400
     32 CAK        -12.2990    -0.2050     0.0190 c3         1 6UL      -0.074400
     33 CAJ        -13.6520     0.4950     0.0210 c3         1 6UL      -0.074400
     34 CAI        -14.8310    -0.4700     0.0240 c3         1 6UL      -0.074400
     35 CAH        -16.1830     0.2330     0.0170 c3         1 6UL      -0.074400
     36 CAG        -17.3640    -0.7290     0.0180 c3         1 6UL      -0.074400
     37 CAF        -18.7140    -0.0230     0.0030 c3         1 6UL      -0.074400
     38 CAE        -19.8980    -0.9830     0.0030 c3         1 6UL      -0.074400
     39 CAD        -21.2470    -0.2760    -0.0170 c3         1 6UL      -0.074400
     40 CAC        -22.4300    -1.2350    -0.0160 c3         1 6UL      -0.075400
     41 CAB        -23.7800    -0.5280    -0.0390 c3         1 6UL      -0.075400
     42 CAA        -24.9540    -1.4980    -0.0380 c3         1 6UL      -0.088100
     43 HBP1        26.3350    -0.4510     0.0510 hc         1 6UL       0.031367
     44 HBP2        25.4180    -1.6770     0.9210 hc         1 6UL       0.031367
     45 HBP3        25.4270    -1.6690    -0.8400 hc         1 6UL       0.031367
     46 HBN1        24.2050     0.5280     0.9190 hc         1 6UL       0.036700
     47 HBN2        24.2150     0.5360    -0.8300 hc         1 6UL       0.036700
     48 HAX1        22.8540    -1.5630    -0.8490 hc         1 6UL       0.036700
     49 HAX2        22.8460    -1.5750     0.9010 hc         1 6UL       0.036700
     50 HAY1        21.6610     0.6320     0.9110 hc         1 6UL       0.036700
     51 HAY2        21.6670     0.6420    -0.8400 hc         1 6UL       0.036700
     52 HAZ1        20.3120    -1.4650    -0.8560 hc         1 6UL       0.036700
     53 HAZ2        20.3040    -1.4730     0.8940 hc         1 6UL       0.036700
     54 HBA1        19.1170     0.7340     0.8970 hc         1 6UL       0.036700
     55 HBA2        19.1210     0.7360    -0.8540 hc         1 6UL       0.036700
     56 HBB1        17.7670    -1.3720    -0.8580 hc         1 6UL       0.036700
     57 HBB2        17.7630    -1.3720     0.8930 hc         1 6UL       0.036700
     58 HBC1        16.5750     0.8330     0.8900 hc         1 6UL       0.036700
     59 HBC2        16.5770     0.8310    -0.8610 hc         1 6UL       0.036700
     60 HBD1        15.2220    -1.2760    -0.8600 hc         1 6UL       0.037200
     61 HBD2        15.2190    -1.2730     0.8900 hc         1 6UL       0.037200
     62 HBE1        14.0330     0.9320     0.8850 hc         1 6UL       0.037200
     63 HBE2        14.0350     0.9290    -0.8650 hc         1 6UL       0.037200
     64 HBF1        12.6750    -1.1730    -0.8650 hc         1 6UL       0.037200
     65 HBF2        12.6740    -1.1730     0.8860 hc         1 6UL       0.037200
     66 HBG1        11.4870     1.0260     0.8920 hc         1 6UL       0.036700
     67 HBG2        11.5020     1.0450    -0.8580 hc         1 6UL       0.036700
     68 HBH1        10.1340    -1.0520    -0.8930 hc         1 6UL       0.037200
     69 HBH2        10.1200    -1.0740     0.8580 hc         1 6UL       0.037200
     70 HBI1         8.9490     1.1400     0.8750 hc         1 6UL       0.037200
     71 HBI2         8.9650     1.1610    -0.8750 hc         1 6UL       0.037200
     72 HBJ1         7.5860    -0.9300    -0.9130 hc         1 6UL       0.037700
     73 HBJ2         7.5720    -0.9530     0.8370 hc         1 6UL       0.037700
     74 HBK1         6.4150     1.2680     0.8560 hc         1 6UL       0.037700
     75 HBK2         6.4280     1.2890    -0.8940 hc         1 6UL       0.037700
     76 HBL1         5.0370    -0.7960    -0.9270 hc         1 6UL       0.037700
     77 HBL2         5.0240    -0.8130     0.8230 hc         1 6UL       0.037700
     78 HBM1         3.8820     1.4160     0.8360 hc         1 6UL       0.037700
     79 HBM2         3.8940     1.4320    -0.9140 hc         1 6UL       0.037700
     80 HAW1         2.4860    -0.6400    -0.9430 hc         1 6UL       0.037700
     81 HAW2         2.4760    -0.6580     0.8070 hc         1 6UL       0.037700
     82 HAV1         1.3570     1.5860     0.8190 hc         1 6UL       0.037700
     83 HAV2         1.3590     1.5920    -0.9310 hc         1 6UL       0.037700
     84 HAU1        -0.0670    -0.4690    -0.9390 hc         1 6UL       0.039700
     85 HAU2        -0.0670    -0.4750     0.8120 hc         1 6UL       0.039700
     86 HAT1        -1.1630     1.7750     0.8200 hc         1 6UL       0.040700
     87 HAT2        -1.1660     1.7790    -0.9310 hc         1 6UL       0.040700
     88 HAS1        -2.6140    -0.2640    -0.9400 hc         1 6UL       0.052700
     89 HAS2        -2.6080    -0.2740     0.8190 hc         1 6UL       0.052700
     90 HAR1        -3.6690     1.9880     0.8410 h1         1 6UL       0.048200
     91 HAR2        -3.6760     2.0000    -0.9250 h1         1 6UL       0.048200
     92 HAO1        -7.1800    -0.3230    -0.8800 hc         1 6UL       0.070700
     93 HAO2        -7.1700    -0.3300     0.8620 hc         1 6UL       0.070700
     94 HAN1        -8.6710     1.6950     0.8810 hc         1 6UL       0.054200
     95 HAN2        -8.6810     1.6990    -0.8690 hc         1 6UL       0.054200
     96 HAM1        -9.7010    -0.5870    -0.8690 hc         1 6UL       0.037700
     97 HAM2        -9.6910    -0.5900     0.8820 hc         1 6UL       0.037700
     98 HAL1       -11.1900     1.4170     0.8930 hc         1 6UL       0.039700
     99 HAL2       -11.1980     1.4210    -0.8570 hc         1 6UL       0.039700
    100 HAK1       -12.2300    -0.8610    -0.8560 hc         1 6UL       0.036700
    101 HAK2       -12.2260    -0.8610     0.8940 hc         1 6UL       0.036700
    102 HAJ1       -13.7200     1.1520     0.8940 hc         1 6UL       0.037700
    103 HAJ2       -13.7230     1.1490    -0.8560 hc         1 6UL       0.037700
    104 HAI1       -14.7610    -1.1310    -0.8480 hc         1 6UL       0.036700
    105 HAI2       -14.7640    -1.1220     0.9020 hc         1 6UL       0.036700
    106 HAH1       -16.2530     0.8940     0.8880 hc         1 6UL       0.037700
    107 HAH2       -16.2480     0.8850    -0.8620 hc         1 6UL       0.037700
    108 HAG1       -17.2920    -1.3930    -0.8510 hc         1 6UL       0.036700
    109 HAG2       -17.3030    -1.3780     0.8990 hc         1 6UL       0.036700
    110 HAF1       -18.7870     0.6410     0.8710 hc         1 6UL       0.036700
    111 HAF2       -18.7750     0.6260    -0.8780 hc         1 6UL       0.036700
    112 HAE1       -19.8230    -1.6490    -0.8640 hc         1 6UL       0.036700
    113 HAE2       -19.8390    -1.6300     0.8860 hc         1 6UL       0.036700
    114 HAD1       -21.3200     0.3910     0.8490 hc         1 6UL       0.036700
    115 HAD2       -21.3050     0.3700    -0.9010 hc         1 6UL       0.036700
    116 HAC1       -22.3570    -1.9040    -0.8810 hc         1 6UL       0.036700
    117 HAC2       -22.3740    -1.8800     0.8690 hc         1 6UL       0.036700
    118 HAB1       -23.8540     0.1380     0.8260 hc         1 6UL       0.036700
    119 HAB2       -23.8360     0.1160    -0.9220 hc         1 6UL       0.036700
    120 HAA1       -24.9210    -2.1550    -0.9100 hc         1 6UL       0.031367
    121 HAA2       -24.9400    -2.1300     0.8510 hc         1 6UL       0.031367
    122 HAA3       -25.9100    -0.9740    -0.0560 hc         1 6UL       0.031367
@<TRIPOS>BOND
     1     1     2 1   
     2     1    43 1   
     3     1    44 1   
     4     1    45 1   
     5     2     3 1   
     6     2    46 1   
     7     2    47 1   
     8     3     4 1   
     9     3    48 1   
    10     3    49 1   
    11     4     5 1   
    12     4    50 1   
    13     4    51 1   
    14     5     6 1   
    15     5    52 1   
    16     5    53 1   
    17     6     7 1   
    18     6    54 1   
    19     6    55 1   
    20     7     8 1   
    21     7    56 1   
    22     7    57 1   
    23     8     9 1   
    24     8    58 1   
    25     8    59 1   
    26     9    10 1   
    27     9    60 1   
    28     9    61 1   
    29    10    11 1   
    30    10    62 1   
    31    10    63 1   
    32    11    12 1   
    33    11    64 1   
    34    11    65 1   
    35    12    13 1   
    36    12    66 1   
    37    12    67 1   
    38    13    14 1   
    39    13    68 1   
    40    13    69 1   
    41    14    15 1   
    42    14    70 1   
    43    14    71 1   
    44    15    16 1   
    45    15    72 1   
    46    15    73 1   
    47    16    17 1   
    48    16    74 1   
    49    16    75 1   
    50    17    18 1   
    51    17    76 1   
    52    17    77 1   
    53    18    19 1   
    54    18    78 1   
    55    18    79 1   
    56    19    20 1   
    57    19    80 1   
    58    19    81 1   
    59    20    21 1   
    60    20    82 1   
    61    20    83 1   
    62    21    22 1   
    63    21    84 1   
    64    21    85 1   
    65    22    23 1   
    66    22    86 1   
    67    22    87 1   
    68    23    24 1   
    69    23    88 1   
    70    23    89 1   
    71    24    25 1   
    72    24    90 1   
    73    24    91 1   
    74    25    26 1   
    75    26    27 2   
    76    26    28 1   
    77    28    29 1   
    78    28    92 1   
    79    28    93 1   
    80    29    30 1   
    81    29    94 1   
    82    29    95 1   
    83    30    31 1   
    84    30    96 1   
    85    30    97 1   
    86    31    32 1   
    87    31    98 1   
    88    31    99 1   
    89    32    33 1   
    90    32   100 1   
    91    32   101 1   
    92    33    34 1   
    93    33   102 1   
    94    33   103 1   
    95    34    35 1   
    96    34   104 1   
    97    34   105 1   
    98    35    36 1   
    99    35   106 1   
   100    35   107 1   
   101    36    37 1   
   102    36   108 1   
   103    36   109 1   
   104    37    38 1   
   105    37   110 1   
   106    37   111 1   
   107    38    39 1   
   108    38   112 1   
   109    38   113 1   
   110    39    40 1   
   111    39   114 1   
   112    39   115 1   
   113    40    41 1   
   114    40   116 1   
   115    40   117 1   
   116    41    42 1   
   117    41   118 1   
   118    41   119 1   
   119    42   120 1   
   120    42   121 1   
   121    42   122 1   
@<TRIPOS>SUBSTRUCTURE
     1 6UL         1 TEMP              0 ****  ****    0 ROOT
