@<TRIPOS>MOLECULE
6UL
  122   121     1     0     0
SMALL
No Charge or Current Charge


@<TRIPOS>ATOM
      1 CBP         25.6330    -1.6640     0.0270 c3         1 6UL      -0.088100
      2 CBN         24.4320    -0.6990     0.0220 c3         1 6UL      -0.075400
      3 CAX         23.0700    -1.4270     0.0230 c3         1 6UL      -0.075400
      4 CAY         21.8670    -0.4590     0.0190 c3         1 6UL      -0.074400
      5 CAZ         20.5050    -1.1880     0.0200 c3         1 6UL      -0.074400
      6 CBA         19.3020    -0.2200     0.0160 c3         1 6UL      -0.074400
      7 CBB         17.9400    -0.9480     0.0170 c3         1 6UL      -0.074400
      8 CBC         16.7370     0.0200     0.0120 c3         1 6UL      -0.074400
      9 CBD         15.3750    -0.7090     0.0130 c3         1 6UL      -0.074400
     10 CBE         14.1710     0.2580     0.0080 c3         1 6UL      -0.074400
     11 CBF         12.8100    -0.4700     0.0090 c3         1 6UL      -0.074400
     12 CBG         11.6060     0.4970     0.0040 c3         1 6UL      -0.074400
     13 CBH         10.2450    -0.2320     0.0050 c3         1 6UL      -0.074400
     14 CBI          9.0410     0.7360    -0.0010 c3         1 6UL      -0.074400
     15 CBJ          7.6800     0.0060    -0.0000 c3         1 6UL      -0.074400
     16 CBK          6.4760     0.9740    -0.0070 c3         1 6UL      -0.074400
     17 CBL          5.1140     0.2450    -0.0060 c3         1 6UL      -0.074400
     18 CBM          3.9100     1.2120    -0.0130 c3         1 6UL      -0.074400
     19 CAW          2.5490     0.4820    -0.0130 c3         1 6UL      -0.074400
     20 CAV          1.3450     1.4500    -0.0200 c3         1 6UL      -0.075400
     21 CAU         -0.0160     0.7200    -0.0210 c3         1 6UL      -0.073400
     22 CAT         -1.2200     1.6880    -0.0280 c3         1 6UL      -0.075400
     23 CAS         -2.5820     0.9580    -0.0290 c3         1 6UL      -0.083400
     24 CAR         -3.7810     1.9240    -0.0370 c3         1 6UL       0.167600
     25 OAQ         -4.9780     1.1280    -0.0380 os         1 6UL      -0.455100
     26 CAP         -6.1840     1.7790    -0.0460 c          1 6UL       0.594100
     27 OBO         -6.3110     2.9970    -0.0530 o          1 6UL      -0.490000
     28 CAO         -7.3520     0.7860    -0.0470 c3         1 6UL      -0.137400
     29 CAN         -8.7670     1.4150    -0.0350 c3         1 6UL      -0.068400
     30 CAM         -9.8930     0.3590    -0.0370 c3         1 6UL      -0.075400
     31 CAL        -11.3060     0.9820    -0.0260 c3         1 6UL      -0.074400
     32 CAK        -12.4330    -0.0750    -0.0280 c3         1 6UL      -0.074400
     33 CAJ        -13.8460     0.5480    -0.0170 c3         1 6UL      -0.074400
     34 CAI        -14.9720    -0.5080    -0.0200 c3         1 6UL      -0.074400
     35 CAH        -16.3850     0.1140    -0.0090 c3         1 6UL      -0.074400
     36 CAG        -17.5110    -0.9420    -0.0120 c3         1 6UL      -0.074400
     37 CAF        -18.9250    -0.3200    -0.0020 c3         1 6UL      -0.074400
     38 CAE        -20.0510    -1.3770    -0.0050 c3         1 6UL      -0.074400
     39 CAD        -21.4640    -0.7540     0.0050 c3         1 6UL      -0.074400
     40 CAC        -22.5900    -1.8110     0.0010 c3         1 6UL      -0.075400
     41 CAB        -24.0040    -1.1890     0.0110 c3         1 6UL      -0.075400
     42 CAA        -25.1270    -2.2430     0.0080 c3         1 6UL      -0.088100
     43 HBP1        26.5750    -1.1020     0.0260 hc         1 6UL       0.031367
     44 HBP2        25.6150    -2.3020     0.9180 hc         1 6UL       0.031367
     45 HBP3        25.6170    -2.3080    -0.8610 hc         1 6UL       0.031367
     46 HBN1        24.4970    -0.0460     0.9020 hc         1 6UL       0.036700
     47 HBN2        24.4980    -0.0520    -0.8610 hc         1 6UL       0.036700
     48 HAX1        23.0110    -2.0800    -0.8560 hc         1 6UL       0.036700
     49 HAX2        23.0090    -2.0740     0.9070 hc         1 6UL       0.036700
     50 HAY1        21.9270     0.1940     0.8990 hc         1 6UL       0.036700
     51 HAY2        21.9280     0.1880    -0.8650 hc         1 6UL       0.036700
     52 HAZ1        20.4450    -1.8400    -0.8600 hc         1 6UL       0.036700
     53 HAZ2        20.4440    -1.8350     0.9040 hc         1 6UL       0.036700
     54 HBA1        19.3610     0.4330     0.8960 hc         1 6UL       0.036700
     55 HBA2        19.3630     0.4270    -0.8680 hc         1 6UL       0.036700
     56 HBB1        17.8800    -1.6010    -0.8630 hc         1 6UL       0.036700
     57 HBB2        17.8790    -1.5950     0.9010 hc         1 6UL       0.036700
     58 HBC1        16.7960     0.6730     0.8920 hc         1 6UL       0.036700
     59 HBC2        16.7980     0.6660    -0.8720 hc         1 6UL       0.036700
     60 HBD1        15.3160    -1.3630    -0.8660 hc         1 6UL       0.037200
     61 HBD2        15.3130    -1.3560     0.8980 hc         1 6UL       0.037200
     62 HBE1        14.2310     0.9120     0.8880 hc         1 6UL       0.037200
     63 HBE2        14.2330     0.9050    -0.8760 hc         1 6UL       0.037200
     64 HBF1        12.7510    -1.1240    -0.8700 hc         1 6UL       0.037200
     65 HBF2        12.7480    -1.1170     0.8940 hc         1 6UL       0.037200
     66 HBG1        11.6650     1.1510     0.8830 hc         1 6UL       0.036700
     67 HBG2        11.6680     1.1440    -0.8800 hc         1 6UL       0.036700
     68 HBH1        10.1860    -0.8850    -0.8750 hc         1 6UL       0.037200
     69 HBH2        10.1830    -0.8780     0.8890 hc         1 6UL       0.037200
     70 HBI1         9.1000     1.3890     0.8790 hc         1 6UL       0.037200
     71 HBI2         9.1030     1.3820    -0.8850 hc         1 6UL       0.037200
     72 HBJ1         7.6210    -0.6470    -0.8800 hc         1 6UL       0.037700
     73 HBJ2         7.6180    -0.6400     0.8840 hc         1 6UL       0.037700
     74 HBK1         6.5340     1.6270     0.8730 hc         1 6UL       0.037700
     75 HBK2         6.5380     1.6200    -0.8910 hc         1 6UL       0.037700
     76 HBL1         5.0560    -0.4090    -0.8860 hc         1 6UL       0.037700
     77 HBL2         5.0520    -0.4020     0.8780 hc         1 6UL       0.037700
     78 HBM1         3.9690     1.8650     0.8660 hc         1 6UL       0.037700
     79 HBM2         3.9730     1.8580    -0.8970 hc         1 6UL       0.037700
     80 HAW1         2.4910    -0.1710    -0.8930 hc         1 6UL       0.037700
     81 HAW2         2.4870    -0.1640     0.8710 hc         1 6UL       0.037700
     82 HAV1         1.4030     2.1030     0.8590 hc         1 6UL       0.037700
     83 HAV2         1.4080     2.0960    -0.9050 hc         1 6UL       0.037700
     84 HAU1        -0.0740     0.0660    -0.9000 hc         1 6UL       0.039700
     85 HAU2        -0.0780     0.0740     0.8640 hc         1 6UL       0.039700
     86 HAT1        -1.1620     2.3420     0.8510 hc         1 6UL       0.040700
     87 HAT2        -1.1570     2.3340    -0.9130 hc         1 6UL       0.040700
     88 HAS1        -2.6420     0.3060    -0.9090 hc         1 6UL       0.052700
     89 HAS2        -2.6480     0.3140     0.8560 hc         1 6UL       0.052700
     90 HAR1        -3.7410     2.5680     0.8520 h1         1 6UL       0.048200
     91 HAR2        -3.7350     2.5610    -0.9310 h1         1 6UL       0.048200
     92 HAO1        -7.2080     0.1110    -0.8990 hc         1 6UL       0.070700
     93 HAO2        -7.1990     0.0960     0.7900 hc         1 6UL       0.070700
     94 HAN1        -8.8700     2.0520     0.8520 hc         1 6UL       0.054200
     95 HAN2        -8.8800     2.0650    -0.9120 hc         1 6UL       0.054200
     96 HAM1        -9.7880    -0.2790    -0.9240 hc         1 6UL       0.037700
     97 HAM2        -9.7790    -0.2910     0.8400 hc         1 6UL       0.037700
     98 HAL1       -11.4120     1.6190     0.8610 hc         1 6UL       0.039700
     99 HAL2       -11.4200     1.6320    -0.9030 hc         1 6UL       0.039700
    100 HAK1       -12.3270    -0.7120    -0.9150 hc         1 6UL       0.036700
    101 HAK2       -12.3190    -0.7240     0.8490 hc         1 6UL       0.036700
    102 HAJ1       -13.9520     1.1860     0.8700 hc         1 6UL       0.037700
    103 HAJ2       -13.9600     1.1980    -0.8940 hc         1 6UL       0.037700
    104 HAI1       -14.8660    -1.1460    -0.9060 hc         1 6UL       0.036700
    105 HAI2       -14.8580    -1.1580     0.8570 hc         1 6UL       0.036700
    106 HAH1       -16.4920     0.7520     0.8780 hc         1 6UL       0.037700
    107 HAH2       -16.4990     0.7640    -0.8860 hc         1 6UL       0.037700
    108 HAG1       -17.4050    -1.5800    -0.8990 hc         1 6UL       0.036700
    109 HAG2       -17.3980    -1.5920     0.8650 hc         1 6UL       0.036700
    110 HAF1       -19.0310     0.3170     0.8850 hc         1 6UL       0.036700
    111 HAF2       -19.0380     0.3300    -0.8790 hc         1 6UL       0.036700
    112 HAE1       -19.9440    -2.0140    -0.8920 hc         1 6UL       0.036700
    113 HAE2       -19.9370    -2.0260     0.8720 hc         1 6UL       0.036700
    114 HAD1       -21.5710    -0.1170     0.8920 hc         1 6UL       0.036700
    115 HAD2       -21.5770    -0.1040    -0.8720 hc         1 6UL       0.036700
    116 HAC1       -22.4840    -2.4480    -0.8860 hc         1 6UL       0.036700
    117 HAC2       -22.4770    -2.4610     0.8780 hc         1 6UL       0.036700
    118 HAB1       -24.1150    -0.5520     0.8980 hc         1 6UL       0.036700
    119 HAB2       -24.1210    -0.5400    -0.8660 hc         1 6UL       0.036700
    120 HAA1       -25.0640    -2.8740    -0.8870 hc         1 6UL       0.031367
    121 HAA2       -25.0580    -2.8870     0.8920 hc         1 6UL       0.031367
    122 HAA3       -26.1090    -1.7550     0.0150 hc         1 6UL       0.031367
@<TRIPOS>BOND
     1     1     2 1   
     2     1    43 1   
     3     1    44 1   
     4     1    45 1   
     5     2     3 1   
     6     2    46 1   
     7     2    47 1   
     8     3     4 1   
     9     3    48 1   
    10     3    49 1   
    11     4     5 1   
    12     4    50 1   
    13     4    51 1   
    14     5     6 1   
    15     5    52 1   
    16     5    53 1   
    17     6     7 1   
    18     6    54 1   
    19     6    55 1   
    20     7     8 1   
    21     7    56 1   
    22     7    57 1   
    23     8     9 1   
    24     8    58 1   
    25     8    59 1   
    26     9    10 1   
    27     9    60 1   
    28     9    61 1   
    29    10    11 1   
    30    10    62 1   
    31    10    63 1   
    32    11    12 1   
    33    11    64 1   
    34    11    65 1   
    35    12    13 1   
    36    12    66 1   
    37    12    67 1   
    38    13    14 1   
    39    13    68 1   
    40    13    69 1   
    41    14    15 1   
    42    14    70 1   
    43    14    71 1   
    44    15    16 1   
    45    15    72 1   
    46    15    73 1   
    47    16    17 1   
    48    16    74 1   
    49    16    75 1   
    50    17    18 1   
    51    17    76 1   
    52    17    77 1   
    53    18    19 1   
    54    18    78 1   
    55    18    79 1   
    56    19    20 1   
    57    19    80 1   
    58    19    81 1   
    59    20    21 1   
    60    20    82 1   
    61    20    83 1   
    62    21    22 1   
    63    21    84 1   
    64    21    85 1   
    65    22    23 1   
    66    22    86 1   
    67    22    87 1   
    68    23    24 1   
    69    23    88 1   
    70    23    89 1   
    71    24    25 1   
    72    24    90 1   
    73    24    91 1   
    74    25    26 1   
    75    26    27 2   
    76    26    28 1   
    77    28    29 1   
    78    28    92 1   
    79    28    93 1   
    80    29    30 1   
    81    29    94 1   
    82    29    95 1   
    83    30    31 1   
    84    30    96 1   
    85    30    97 1   
    86    31    32 1   
    87    31    98 1   
    88    31    99 1   
    89    32    33 1   
    90    32   100 1   
    91    32   101 1   
    92    33    34 1   
    93    33   102 1   
    94    33   103 1   
    95    34    35 1   
    96    34   104 1   
    97    34   105 1   
    98    35    36 1   
    99    35   106 1   
   100    35   107 1   
   101    36    37 1   
   102    36   108 1   
   103    36   109 1   
   104    37    38 1   
   105    37   110 1   
   106    37   111 1   
   107    38    39 1   
   108    38   112 1   
   109    38   113 1   
   110    39    40 1   
   111    39   114 1   
   112    39   115 1   
   113    40    41 1   
   114    40   116 1   
   115    40   117 1   
   116    41    42 1   
   117    41   118 1   
   118    41   119 1   
   119    42   120 1   
   120    42   121 1   
   121    42   122 1   
@<TRIPOS>SUBSTRUCTURE
     1 6UL         1 TEMP              0 ****  ****    0 ROOT
