@<TRIPOS>MOLECULE
6UM
   38    40     1     0     0
SMALL
No Charge or Current Charge


@<TRIPOS>ATOM
      1 C2          -1.1150     2.6450     0.1980 ca         1 6UM       0.118900
      2 C3          -3.4070     2.6600     0.0630 ca         1 6UM       0.130300
      3 N4           4.2000     0.2920    -0.8260 nb         1 6UM      -0.675000
      4 C5           1.4030     0.7710     0.0490 c          1 6UM       0.664100
      5 C7           5.5360     0.1540    -0.9790 ca         1 6UM       0.373900
      6 C9           5.6700    -1.5400     0.7490 ca         1 6UM      -0.044000
      7 C10          4.2840    -1.3960     0.9090 ca         1 6UM      -0.216000
      8 C11         -2.5450    -0.8930    -0.1910 cp         1 6UM      -0.163500
      9 C12         -3.5130    -1.5880     0.5790 ca         1 6UM      -0.081000
     10 C13         -3.6780    -2.9780     0.4520 ca         1 6UM      -0.118500
     11 C15         -1.9320    -3.0320    -1.2370 ca         1 6UM      -0.118500
     12 O            1.8180     1.9060    -0.1450 o          1 6UM      -0.557100
     13 N3           2.2080    -0.3330     0.2060 ns         1 6UM      -0.341900
     14 C6           3.6000    -0.4550     0.1230 ca         1 6UM       0.496900
     15 C8           6.3050    -0.7410    -0.2150 ca         1 6UM      -0.196000
     16 C1          -1.1190     1.2360     0.0850 ca         1 6UM      -0.124000
     17 C           -2.3810     0.5910    -0.0540 cp         1 6UM       0.154500
     18 N1          -3.5160     1.3200    -0.0480 nb         1 6UM      -0.174000
     19 C4          -4.7000     3.4580     0.0470 c3         1 6UM      -0.131400
     20 N           -2.2590     3.3570     0.1820 nb         1 6UM      -0.167000
     21 C16         -1.7660    -1.6420    -1.1110 ca         1 6UM      -0.081000
     22 C14         -2.8850    -3.7020    -0.4530 ca         1 6UM      -0.096000
     23 H1          -0.2020     3.2200     0.3260 h4         1 6UM       0.041100
     24 H3           6.2350    -2.2520     1.3500 ha         1 6UM       0.120000
     25 H4           3.7450    -1.9980     1.6340 ha         1 6UM       0.120000
     26 H5          -4.1340    -1.0440     1.2880 ha         1 6UM       0.126000
     27 H6          -4.4210    -3.4940     1.0570 ha         1 6UM       0.116500
     28 H7          -1.3250    -3.5890    -1.9470 ha         1 6UM       0.116500
     29 H8           1.7300    -1.1960     0.4270 hn         1 6UM       0.151000
     30 H9           7.3760    -0.8150    -0.3800 ha         1 6UM       0.128000
     31 H11         -4.9660     3.7450    -0.9770 hc         1 6UM       0.059700
     32 H12         -5.5340     2.8790     0.4600 hc         1 6UM       0.059700
     33 H13         -4.6120     4.3760     0.6400 hc         1 6UM       0.059700
     34 H14         -1.0380    -1.1400    -1.7450 ha         1 6UM       0.126000
     35 H15         -3.0140    -4.7770    -0.5520 ha         1 6UM       0.114000
     36 N2           0.0610     0.4390     0.1510 ns         1 6UM      -0.174000
     37 H2           6.0050     0.7760    -1.7420 h4         1 6UM       0.025100
     38 H10         -0.1160    -0.5470     0.2910 hn         1 6UM       0.158000
@<TRIPOS>BOND
     1     1    16 ar  
     2     1    20 ar  
     3     1    23 1   
     4     2    18 ar  
     5     2    19 1   
     6     2    20 ar  
     7     3     5 ar  
     8     3    14 ar  
     9     4    12 2   
    10     4    13 1   
    11     4    36 1   
    12     5    15 ar  
    13     5    37 1   
    14     6     7 ar  
    15     6    15 ar  
    16     6    24 1   
    17     7    14 ar  
    18     7    25 1   
    19     8     9 ar  
    20     8    17 1   
    21     8    21 ar  
    22     9    10 ar  
    23     9    26 1   
    24    10    22 ar  
    25    10    27 1   
    26    11    21 ar  
    27    11    22 ar  
    28    11    28 1   
    29    13    14 1   
    30    13    29 1   
    31    15    30 1   
    32    16    17 ar  
    33    16    36 1   
    34    17    18 ar  
    35    19    31 1   
    36    19    32 1   
    37    19    33 1   
    38    21    34 1   
    39    22    35 1   
    40    36    38 1   
@<TRIPOS>SUBSTRUCTURE
     1 6UM         1 TEMP              0 ****  ****    0 ROOT
