@<TRIPOS>MOLECULE
6UM
   38    40     1     0     0
SMALL
bcc


@<TRIPOS>ATOM
      1 C2          -1.0750     2.4550     0.5990 ca         1 6UM       0.447200
      2 C3          -3.2670     2.6030     0.0560 ca         1 6UM       0.656300
      3 N4           3.9120     0.1170    -0.9660 nb         1 6UM      -0.675000
      4 C5           1.2610     0.5480     0.1560 c          1 6UM       0.798100
      5 C7           5.1920     0.0200    -1.3140 ca         1 6UM       0.439200
      6 C9           5.7400    -1.2310     0.6250 ca         1 6UM      -0.062000
      7 C10          4.4200    -1.1280     1.0100 ca         1 6UM      -0.299300
      8 C11         -2.5140    -0.9250    -0.1920 cp         1 6UM      -0.163500
      9 C12         -3.6580    -1.5440     0.3140 ca         1 6UM      -0.099000
     10 C13         -3.8790    -2.8950     0.0950 ca         1 6UM      -0.136500
     11 C15         -1.8430    -3.0260    -1.1740 ca         1 6UM      -0.136500
     12 O            1.4700     1.4870    -0.5810 o          1 6UM      -0.557100
     13 N3           2.2020    -0.3670     0.5600 ns         1 6UM      -0.575400
     14 C6           3.5370    -0.4350     0.1740 ca         1 6UM       0.562200
     15 C8           6.1490    -0.6390    -0.5660 ca         1 6UM      -0.279300
     16 C1          -1.0950     1.0750     0.4250 ca         1 6UM      -0.162000
     17 C           -2.3160     0.5220     0.0330 cp         1 6UM       0.482800
     18 N1          -3.3890     1.2970    -0.1190 nb         1 6UM      -0.700000
     19 C4          -4.4720     3.4590    -0.1620 c3         1 6UM      -0.131400
     20 N           -2.1350     3.2150     0.4000 nb         1 6UM      -0.693000
     21 C16         -1.6100    -1.6780    -0.9420 ca         1 6UM      -0.099000
     22 C14         -2.9730    -3.6390    -0.6500 ca         1 6UM      -0.114000
     23 H1          -0.1690     2.9520     0.9260 h4         1 6UM       0.041100
     24 H3           6.4450    -1.7620     1.2500 ha         1 6UM       0.138000
     25 H4           4.0750    -1.5650     1.9380 ha         1 6UM       0.138000
     26 H5          -4.3710    -0.9660     0.8860 ha         1 6UM       0.144000
     27 H6          -4.7630    -3.3670     0.5040 ha         1 6UM       0.134500
     28 H7          -1.1410    -3.5950    -1.7690 ha         1 6UM       0.134500
     29 H8           1.9520    -0.9740     1.3260 hn         1 6UM       0.317500
     30 H9           7.1750    -0.6900    -0.9020 ha         1 6UM       0.146000
     31 H11         -4.3780     4.0120    -1.0990 hc         1 6UM       0.059700
     32 H12         -5.3770     2.8590    -0.2110 hc         1 6UM       0.059700
     33 H13         -4.5740     4.1940     0.6360 hc         1 6UM       0.059700
     34 H14         -0.7360    -1.2110    -1.3760 ha         1 6UM       0.144000
     35 H15         -3.1500    -4.6920    -0.8260 ha         1 6UM       0.132000
     36 N2           0.0260     0.2890     0.6990 ns         1 6UM      -0.500100
     37 H2           5.4630     0.4920    -2.2530 h4         1 6UM       0.025100
     38 H10         -0.1370    -0.5950     1.1570 hn         1 6UM       0.324500
@<TRIPOS>BOND
     1     1    16 ar  
     2     1    20 ar  
     3     1    23 1   
     4     2    18 ar  
     5     2    19 1   
     6     2    20 ar  
     7     3     5 ar  
     8     3    14 ar  
     9     4    12 2   
    10     4    13 1   
    11     4    36 1   
    12     5    15 ar  
    13     5    37 1   
    14     6     7 ar  
    15     6    15 ar  
    16     6    24 1   
    17     7    14 ar  
    18     7    25 1   
    19     8     9 ar  
    20     8    17 1   
    21     8    21 ar  
    22     9    10 ar  
    23     9    26 1   
    24    10    22 ar  
    25    10    27 1   
    26    11    21 ar  
    27    11    22 ar  
    28    11    28 1   
    29    13    14 1   
    30    13    29 1   
    31    15    30 1   
    32    16    17 ar  
    33    16    36 1   
    34    17    18 ar  
    35    19    31 1   
    36    19    32 1   
    37    19    33 1   
    38    21    34 1   
    39    22    35 1   
    40    36    38 1   
@<TRIPOS>SUBSTRUCTURE
     1 6UM         1 TEMP              0 ****  ****    0 ROOT
