@<TRIPOS>MOLECULE
6UN
   15    14     1     0     0
SMALL
No Charge or Current Charge


@<TRIPOS>ATOM
      1 OAB          2.6150    -1.6100     0.3000 o          1 6UN      -0.699000
      2 CAA          2.7100    -0.4140     0.0330 c          1 6UN       0.648000
      3 OAD          3.7810     0.1200    -0.2490 o          1 6UN      -0.699000
      4 CAC          1.3680     0.5030     0.0610 c          1 6UN       0.408300
      5 OAJ          1.4100     1.7360     0.1110 o          1 6UN      -0.559100
      6 CAE          0.0510    -0.2240     0.0200 ce         1 6UN      -0.233200
      7 CAF         -1.1770     0.3710     0.0370 cf         1 6UN      -0.195000
      8 CAG         -2.4410    -0.3500    -0.0040 cf         1 6UN      -0.216000
      9 CAH         -3.6470     0.2530     0.0130 c2         1 6UN      -0.067900
     10 OAI         -4.7720    -0.4860    -0.0280 oh         1 6UN      -0.547100
     11 H2           0.1110    -1.3110    -0.0290 ha         1 6UN       0.201000
     12 H3          -1.2280     1.4630     0.0850 ha         1 6UN       0.169000
     13 H4          -2.3950    -1.4410    -0.0520 ha         1 6UN       0.184000
     14 H5          -3.7610     1.3400     0.0600 h4         1 6UN       0.157000
     15 H6          -5.5460     0.1220    -0.0070 ho         1 6UN       0.449000
@<TRIPOS>BOND
     1     1     2 1   
     2     2     3 1   
     3     2     4 1   
     4     4     5 2   
     5     4     6 1   
     6     6     7 2   
     7     6    11 1   
     8     7     8 1   
     9     7    12 1   
    10     8     9 2   
    11     8    13 1   
    12     9    10 1   
    13     9    14 1   
    14    10    15 1   
@<TRIPOS>SUBSTRUCTURE
     1 6UN         1 TEMP              0 ****  ****    0 ROOT
