@<TRIPOS>MOLECULE
6UN
   15    14     1     0     0
SMALL
abcg2


@<TRIPOS>ATOM
      1 OAB          2.5370    -1.5660     0.1650 o          1 6UN      -0.699000
      2 CAA          2.6310    -0.3320     0.0330 c          1 6UN       0.648000
      3 OAD          3.6580     0.3480    -0.1040 o          1 6UN      -0.699000
      4 CAC          1.2920     0.4600     0.0440 c          1 6UN       0.408300
      5 OAJ          1.3060     1.6790     0.0690 o          1 6UN      -0.559100
      6 CAE          0.0560    -0.3190     0.0270 ce         1 6UN      -0.233200
      7 CAF         -1.1590     0.2690     0.0280 cf         1 6UN      -0.195000
      8 CAG         -2.4080    -0.4300     0.0030 cf         1 6UN      -0.216000
      9 CAH         -3.5680     0.2510     0.0120 c2         1 6UN      -0.067900
     10 OAI         -4.7500    -0.3580    -0.0090 oh         1 6UN      -0.547100
     11 H2           0.1370    -1.3980     0.0080 ha         1 6UN       0.201000
     12 H3          -1.2090     1.3550     0.0490 ha         1 6UN       0.169000
     13 H4          -2.4100    -1.5140    -0.0210 ha         1 6UN       0.184000
     14 H5          -3.5720     1.3380     0.0380 h4         1 6UN       0.157000
     15 H6          -5.4630     0.2880     0.0100 ho         1 6UN       0.449000
@<TRIPOS>BOND
     1     1     2 1   
     2     2     3 1   
     3     2     4 1   
     4     4     5 2   
     5     4     6 1   
     6     6     7 2   
     7     6    11 1   
     8     7     8 1   
     9     7    12 1   
    10     8     9 2   
    11     8    13 1   
    12     9    10 1   
    13     9    14 1   
    14    10    15 1   
@<TRIPOS>SUBSTRUCTURE
     1 6UN         1 TEMP              0 ****  ****    0 ROOT
