@<TRIPOS>MOLECULE
6UO
   54    56     1     0     0
SMALL
abcg2


@<TRIPOS>ATOM
      1 C11        -35.1440    19.5230   155.3910 c3         1 6UO       0.158600
      2 C14        -36.6420    16.3090   156.1620 c          1 6UO       0.615700
      3 C17        -37.4300    14.3110   153.0590 ca         1 6UO      -0.183000
      4 C18        -37.6650    13.0870   153.6740 ca         1 6UO       0.363900
      5 C15        -37.0220    15.2200   155.2290 ca         1 6UO      -0.193600
      6 C16        -37.1020    15.4000   153.8500 ca         1 6UO      -0.019000
      7 C20        -37.2770    13.9510   155.7500 ca         1 6UO       0.397900
      8 C24        -33.7120    14.4530   154.9000 ca         1 6UO      -0.072300
      9 C23        -33.6430    15.7970   154.2460 c3         1 6UO      -0.272100
     10 C26        -33.6690    13.0960   156.8990 ca         1 6UO      -0.106000
     11 C27        -33.9170    11.9580   156.1370 ca         1 6UO      -0.098000
     12 C28        -34.0610    12.0670   154.7570 ca         1 6UO      -0.106000
     13 C29        -33.9580    13.3080   154.1430 ca         1 6UO      -0.093000
     14 C12        -35.7570    18.5100   156.3140 c3         1 6UO       0.158600
     15 C04        -32.8470    17.8460   151.7680 c6         1 6UO       0.225800
     16 C05        -32.0240    18.6920   150.8050 c6         1 6UO      -0.086400
     17 C06        -31.6920    20.0500   151.4210 c6         1 6UO      -0.075400
     18 C07        -31.0080    19.8800   152.7790 c6         1 6UO      -0.070400
     19 C08        -31.8340    19.0070   153.7280 c6         1 6UO       0.197500
     20 C09        -33.0620    19.7560   154.2650 c          1 6UO       0.570100
     21 C25        -33.5670    14.3380   156.2830 ca         1 6UO      -0.093000
     22 N03        -32.1600    17.7470   153.0660 n3         1 6UO      -0.795500
     23 N19        -37.5950    12.9020   154.9970 nb         1 6UO      -0.667000
     24 O01        -31.5000    15.3490   152.7940 o          1 6UO      -0.539000
     25 O10        -33.9760    18.9270   154.7790 os         1 6UO      -0.461100
     26 O13        -36.2470    17.4140   155.5140 os         1 6UO      -0.453100
     27 O21        -36.6610    16.2150   157.3710 o          1 6UO      -0.479000
     28 O22        -33.1650    20.9590   154.2800 o          1 6UO      -0.473000
     29 O30        -31.1910    16.4960   154.9780 o          1 6UO      -0.539000
     30 S02        -31.9790    16.2930   153.7820 s6         1 6UO       1.249100
     31 H1         -34.8490    20.4020   155.9610 h1         1 6UO       0.069200
     32 H2         -35.8350    19.8210   154.6020 h1         1 6UO       0.069200
     33 H3         -37.5000    14.4030   151.9840 ha         1 6UO       0.127000
     34 H4         -37.9210    12.2170   153.0790 h4         1 6UO       0.023100
     35 H5         -36.9040    16.3670   153.4100 ha         1 6UO       0.132000
     36 H6         -37.2090    13.7900   156.8190 h4         1 6UO       0.043100
     37 H7         -33.9880    16.5920   154.8980 h1         1 6UO       0.100200
     38 H8         -34.2160    15.8270   153.3210 h1         1 6UO       0.100200
     39 H9         -33.5660    13.0190   157.9740 ha         1 6UO       0.117000
     40 H10        -34.0070    10.9920   156.6180 ha         1 6UO       0.116000
     41 H11        -34.2670    11.1870   154.1620 ha         1 6UO       0.117000
     42 H12        -34.0870    13.3970   153.0710 ha         1 6UO       0.117000
     43 H13        -36.5890    18.9620   156.8570 h1         1 6UO       0.068700
     44 H14        -35.0270    18.1340   157.0300 h1         1 6UO       0.068700
     45 H15        -33.8360    18.2910   151.9240 h1         1 6UO       0.050200
     46 H16        -32.9920    16.8420   151.3760 h1         1 6UO       0.050200
     47 H17        -32.5860    18.8160   149.8770 hc         1 6UO       0.055700
     48 H18        -31.1010    18.1560   150.5660 hc         1 6UO       0.055700
     49 H19        -31.0460    20.6220   150.7530 hc         1 6UO       0.051200
     50 H20        -32.6130    20.6280   151.5460 hc         1 6UO       0.051200
     51 H21        -30.0410    19.3900   152.6480 hc         1 6UO       0.065700
     52 H22        -30.8300    20.8460   153.2490 hc         1 6UO       0.065700
     53 H23        -31.2380    18.7730   154.6110 h1         1 6UO       0.109700
     54 H24        -33.3910    15.2260   156.8760 ha         1 6UO       0.117000
@<TRIPOS>BOND
     1     1    14 1   
     2     1    25 1   
     3     1    31 1   
     4     1    32 1   
     5     2     5 1   
     6     2    26 1   
     7     2    27 2   
     8     3     4 ar  
     9     3     6 ar  
    10     3    33 1   
    11     4    23 ar  
    12     4    34 1   
    13     5     6 ar  
    14     5     7 ar  
    15     6    35 1   
    16     7    23 ar  
    17     7    36 1   
    18     8     9 1   
    19     8    13 ar  
    20     8    21 ar  
    21     9    30 1   
    22     9    37 1   
    23     9    38 1   
    24    10    11 ar  
    25    10    21 ar  
    26    10    39 1   
    27    11    12 ar  
    28    11    40 1   
    29    12    13 ar  
    30    12    41 1   
    31    13    42 1   
    32    14    26 1   
    33    14    43 1   
    34    14    44 1   
    35    15    16 1   
    36    15    22 1   
    37    15    45 1   
    38    15    46 1   
    39    16    17 1   
    40    16    47 1   
    41    16    48 1   
    42    17    18 1   
    43    17    49 1   
    44    17    50 1   
    45    18    19 1   
    46    18    51 1   
    47    18    52 1   
    48    19    20 1   
    49    19    22 1   
    50    19    53 1   
    51    20    25 1   
    52    20    28 2   
    53    21    54 1   
    54    22    30 1   
    55    24    30 2   
    56    29    30 2   
@<TRIPOS>SUBSTRUCTURE
     1 6UO         1 TEMP              0 ****  ****    0 ROOT
