@<TRIPOS>MOLECULE
6UO
   54    56     1     0     0
SMALL
No Charge or Current Charge


@<TRIPOS>ATOM
      1 C11        -34.9300    19.9360   155.4860 c3         1 6UO       0.158600
      2 C14        -36.5290    16.5730   155.3150 c          1 6UO       0.615700
      3 C17        -37.0900    15.3740   151.7450 ca         1 6UO      -0.183000
      4 C18        -37.3570    14.0240   152.0190 ca         1 6UO       0.363900
      5 C15        -36.8320    15.7300   154.1190 ca         1 6UO      -0.193600
      6 C16        -36.8230    16.2500   152.8080 ca         1 6UO      -0.019000
      7 C20        -37.1090    14.3650   154.2990 ca         1 6UO       0.397900
      8 C24        -33.3810    14.3170   155.6480 ca         1 6UO      -0.072300
      9 C23        -33.3690    15.4920   154.6830 c3         1 6UO      -0.272100
     10 C26        -33.0910    13.4300   157.9010 ca         1 6UO      -0.106000
     11 C27        -33.4430    12.1480   157.4450 ca         1 6UO      -0.098000
     12 C28        -33.7680    11.9500   156.0920 ca         1 6UO      -0.106000
     13 C29        -33.7380    13.0320   155.1960 ca         1 6UO      -0.093000
     14 C12        -35.5710    18.6500   156.0760 c3         1 6UO       0.158600
     15 C04        -33.2440    17.2120   152.1170 c6         1 6UO       0.225800
     16 C05        -33.1580    18.2440   150.9740 c6         1 6UO      -0.086400
     17 C06        -32.9760    19.6700   151.5300 c6         1 6UO      -0.075400
     18 C07        -31.7850    19.7180   152.5220 c6         1 6UO      -0.070400
     19 C08        -31.8230    18.6100   153.6260 c6         1 6UO       0.197500
     20 C09        -32.7760    18.9590   154.8310 c          1 6UO       0.570100
     21 C25        -33.0620    14.5120   157.0050 ca         1 6UO      -0.093000
     22 N03        -32.0300    17.2600   152.9670 n3         1 6UO      -0.795500
     23 N19        -37.3690    13.5190   153.2730 nb         1 6UO      -0.667000
     24 O01        -31.3840    14.7860   153.0080 o          1 6UO      -0.539000
     25 O10        -33.9310    19.6200   154.4820 os         1 6UO      -0.461100
     26 O13        -36.0160    17.8030   154.9960 os         1 6UO      -0.453100
     27 O21        -36.7050    16.1890   156.4630 o          1 6UO      -0.479000
     28 O22        -32.5260    18.6190   155.9800 o          1 6UO      -0.473000
     29 O30        -30.8280    16.2510   154.9940 o          1 6UO      -0.539000
     30 S02        -31.7650    15.8560   153.9370 s6         1 6UO       1.249100
     31 H1         -34.4910    20.5290   156.2990 h1         1 6UO       0.069200
     32 H2         -35.7280    20.5410   155.0360 h1         1 6UO       0.069200
     33 H3         -37.0940    15.7310   150.7190 ha         1 6UO       0.127000
     34 H4         -37.5690    13.3240   151.2110 h4         1 6UO       0.023100
     35 H5         -36.6190    17.3020   152.6110 ha         1 6UO       0.132000
     36 H6         -37.1160    13.9200   155.2940 h4         1 6UO       0.043100
     37 H7         -33.6780    16.4040   155.1980 h1         1 6UO       0.100200
     38 H8         -34.0520    15.2990   153.8520 h1         1 6UO       0.100200
     39 H9         -32.8410    13.5850   158.9490 ha         1 6UO       0.117000
     40 H10        -33.4670    11.3110   158.1390 ha         1 6UO       0.116000
     41 H11        -34.0440    10.9590   155.7390 ha         1 6UO       0.117000
     42 H12        -33.9940    12.8710   154.1510 ha         1 6UO       0.117000
     43 H13        -36.4160    18.9370   156.7150 h1         1 6UO       0.068700
     44 H14        -34.8450    18.1270   156.7100 h1         1 6UO       0.068700
     45 H15        -34.1460    17.4060   152.7150 h1         1 6UO       0.050200
     46 H16        -33.3610    16.2160   151.6640 h1         1 6UO       0.050200
     47 H17        -34.0640    18.1930   150.3570 hc         1 6UO       0.055700
     48 H18        -32.3140    17.9890   150.3190 hc         1 6UO       0.055700
     49 H19        -32.8000    20.3720   150.7030 hc         1 6UO       0.051200
     50 H20        -33.9040    20.0010   152.0140 hc         1 6UO       0.051200
     51 H21        -30.8540    19.5990   151.9510 hc         1 6UO       0.065700
     52 H22        -31.7230    20.7110   152.9890 hc         1 6UO       0.065700
     53 H23        -30.8270    18.6300   154.0930 h1         1 6UO       0.109700
     54 H24        -32.7910    15.5030   157.3650 ha         1 6UO       0.117000
@<TRIPOS>BOND
     1     1    14 1   
     2     1    25 1   
     3     1    31 1   
     4     1    32 1   
     5     2     5 1   
     6     2    26 1   
     7     2    27 2   
     8     3     4 ar  
     9     3     6 ar  
    10     3    33 1   
    11     4    23 ar  
    12     4    34 1   
    13     5     6 ar  
    14     5     7 ar  
    15     6    35 1   
    16     7    23 ar  
    17     7    36 1   
    18     8     9 1   
    19     8    13 ar  
    20     8    21 ar  
    21     9    30 1   
    22     9    37 1   
    23     9    38 1   
    24    10    11 ar  
    25    10    21 ar  
    26    10    39 1   
    27    11    12 ar  
    28    11    40 1   
    29    12    13 ar  
    30    12    41 1   
    31    13    42 1   
    32    14    26 1   
    33    14    43 1   
    34    14    44 1   
    35    15    16 1   
    36    15    22 1   
    37    15    45 1   
    38    15    46 1   
    39    16    17 1   
    40    16    47 1   
    41    16    48 1   
    42    17    18 1   
    43    17    49 1   
    44    17    50 1   
    45    18    19 1   
    46    18    51 1   
    47    18    52 1   
    48    19    20 1   
    49    19    22 1   
    50    19    53 1   
    51    20    25 1   
    52    20    28 2   
    53    21    54 1   
    54    22    30 1   
    55    24    30 2   
    56    29    30 2   
@<TRIPOS>SUBSTRUCTURE
     1 6UO         1 TEMP              0 ****  ****    0 ROOT
