@<TRIPOS>MOLECULE
6UP
   25    26     1     0     0
SMALL
abcg2


@<TRIPOS>ATOM
      1 CAI         -0.5450    -0.7010     0.0140 ca         1 6UP      -0.036000
      2 CAN          0.7900    -0.2490     0.0350 ca         1 6UP      -0.084000
      3 CAL          1.8970    -1.1530     0.1490 ca         1 6UP       0.312000
      4 N1           1.6780    -2.5080     0.2620 nv         1 6UP      -1.067000
      5 CAE          3.1750    -0.6330     0.2020 ca         1 6UP      -0.206000
      6 CAD          3.4040     0.7510     0.1340 ca         1 6UP      -0.054000
      7 CAG          2.3680     1.6350     0.0010 ca         1 6UP      -0.153000
      8 CAM          1.0430     1.1470    -0.0510 ca         1 6UP       0.008000
      9 CAH         -0.0600     2.0220    -0.1810 ca         1 6UP      -0.117000
     10 CAF         -1.3430     1.5530    -0.2060 ca         1 6UP      -0.085000
     11 CAK         -1.6030     0.1680    -0.1010 ca         1 6UP      -0.162900
     12 CAJ         -2.9910    -0.3720    -0.1190 ce         1 6UP       0.666800
     13 N2          -3.9660     0.5170     0.2330 nv         1 6UP      -1.077200
     14 N3          -3.1770    -1.5790    -0.4970 n2         1 6UP      -0.838100
     15 H1          -0.7670    -1.7560     0.1060 ha         1 6UP       0.133000
     16 H2           0.8960    -2.8840    -0.2480 hn         1 6UP       0.451000
     17 H3           2.4980    -3.0780     0.1310 hn         1 6UP       0.451000
     18 H4           4.0200    -1.3060     0.2890 ha         1 6UP       0.111000
     19 H5           4.4240     1.1120     0.1760 ha         1 6UP       0.110000
     20 H6           2.5440     2.7010    -0.0620 ha         1 6UP       0.115000
     21 H7           0.1260     3.0860    -0.2650 ha         1 6UP       0.114000
     22 H8          -2.1570     2.2570    -0.3260 ha         1 6UP       0.116000
     23 H9          -3.7330     1.2660     0.8630 hn         1 6UP       0.461000
     24 H10         -4.8960     0.1520     0.3690 hn         1 6UP       0.461000
     25 H11         -4.1580    -1.8380    -0.4310 hn         1 6UP       0.370400
@<TRIPOS>BOND
     1     1     2 ar  
     2     1    11 ar  
     3     1    15 1   
     4     2     3 ar  
     5     2     8 ar  
     6     3     4 1   
     7     3     5 ar  
     8     4    16 1   
     9     4    17 1   
    10     5     6 ar  
    11     5    18 1   
    12     6     7 ar  
    13     6    19 1   
    14     7     8 ar  
    15     7    20 1   
    16     8     9 ar  
    17     9    10 ar  
    18     9    21 1   
    19    10    11 ar  
    20    10    22 1   
    21    11    12 1   
    22    12    13 1   
    23    12    14 2   
    24    13    23 1   
    25    13    24 1   
    26    14    25 1   
@<TRIPOS>SUBSTRUCTURE
     1 6UP         1 TEMP              0 ****  ****    0 ROOT
