@<TRIPOS>MOLECULE
6UP
   25    26     1     0     0
SMALL
No Charge or Current Charge


@<TRIPOS>ATOM
      1 CAI         -0.5310    -0.7280     0.0010 ca         1 6UP      -0.036000
      2 CAN          0.8050    -0.2580     0.0350 ca         1 6UP      -0.084000
      3 CAL          1.9110    -1.1420     0.1390 ca         1 6UP       0.312000
      4 N1           1.7670    -2.5080     0.2040 nv         1 6UP      -1.067000
      5 CAE          3.2160    -0.6280     0.1780 ca         1 6UP      -0.206000
      6 CAD          3.4420     0.7550     0.1090 ca         1 6UP      -0.054000
      7 CAG          2.3560     1.6340     0.0010 ca         1 6UP      -0.153000
      8 CAM          1.0410     1.1340    -0.0350 ca         1 6UP       0.008000
      9 CAH         -0.0360     2.0280    -0.1480 ca         1 6UP      -0.117000
     10 CAF         -1.3560     1.5520    -0.1830 ca         1 6UP      -0.085000
     11 CAK         -1.6240     0.1670    -0.0900 ca         1 6UP      -0.162900
     12 CAJ         -3.0260    -0.3630    -0.1570 ce         1 6UP       0.666800
     13 N2          -4.0350     0.4610     0.1950 nv         1 6UP      -1.077200
     14 N3          -3.3050    -1.5700    -0.4280 n2         1 6UP      -0.838100
     15 H1          -0.7330    -1.7930     0.0570 ha         1 6UP       0.133000
     16 H2           0.8690    -2.9330    -0.0110 hn         1 6UP       0.451000
     17 H3           2.5900    -3.1020     0.1360 hn         1 6UP       0.451000
     18 H4           4.0650    -1.3010     0.2600 ha         1 6UP       0.111000
     19 H5           4.4580     1.1450     0.1380 ha         1 6UP       0.110000
     20 H6           2.5370     2.7050    -0.0540 ha         1 6UP       0.115000
     21 H7           0.1470     3.0980    -0.2150 ha         1 6UP       0.114000
     22 H8          -2.1650     2.2710    -0.2940 ha         1 6UP       0.116000
     23 H9          -3.7450     1.2990     0.6840 hn         1 6UP       0.461000
     24 H10         -4.8670     0.0150     0.5640 hn         1 6UP       0.461000
     25 H11         -4.3130    -1.6270    -0.6080 hn         1 6UP       0.370400
@<TRIPOS>BOND
     1     1     2 ar  
     2     1    11 ar  
     3     1    15 1   
     4     2     3 ar  
     5     2     8 ar  
     6     3     4 1   
     7     3     5 ar  
     8     4    16 1   
     9     4    17 1   
    10     5     6 ar  
    11     5    18 1   
    12     6     7 ar  
    13     6    19 1   
    14     7     8 ar  
    15     7    20 1   
    16     8     9 ar  
    17     9    10 ar  
    18     9    21 1   
    19    10    11 ar  
    20    10    22 1   
    21    11    12 1   
    22    12    13 1   
    23    12    14 2   
    24    13    23 1   
    25    13    24 1   
    26    14    25 1   
@<TRIPOS>SUBSTRUCTURE
     1 6UP         1 TEMP              0 ****  ****    0 ROOT
