@<TRIPOS>MOLECULE
6UU
   27    28     1     0     0
SMALL
No Charge or Current Charge


@<TRIPOS>ATOM
      1 C11         -2.1560     0.0070     0.1340 ca         1 6UU      -0.102800
      2 C12         -1.8080    -1.3520     0.0710 ca         1 6UU       0.009000
      3 C13         -2.8200    -2.2760    -0.2720 ca         1 6UU      -0.182000
      4 C14         -4.1360    -1.8300    -0.5380 ca         1 6UU      -0.100000
      5 C15         -4.4500    -0.4570    -0.4620 ca         1 6UU      -0.187000
      6 P1           3.3410    -0.0890     0.6310 p5         1 6UU       1.211800
      7 O2           4.7190     0.4530     0.6400 o          1 6UU      -0.931500
      8 N4           2.4430     1.0220    -0.1550 n7         1 6UU      -0.890500
      9 C5           1.0080     0.8670    -0.4290 c3         1 6UU       0.234800
     10 C7          -1.3580     1.1590     0.4530 cc         1 6UU      -0.042400
     11 C8          -2.2190     2.2500     0.3740 cd         1 6UU      -0.245100
     12 N9          -3.5170     1.8100     0.0140 na         1 6UU      -0.253700
     13 C10         -3.4280     0.4390    -0.1200 ca         1 6UU      -0.053200
     14 O3           3.2640    -1.3230    -0.1830 o          1 6UU      -0.931500
     15 O1           2.7950    -0.2870     1.9950 o          1 6UU      -0.931500
     16 H1          -0.7920    -1.6840     0.2820 ha         1 6UU       0.213000
     17 H2          -2.5860    -3.3360    -0.3300 ha         1 6UU       0.105000
     18 H3          -4.9090    -2.5480    -0.8010 ha         1 6UU       0.075000
     19 H4          -5.4590    -0.1040    -0.6630 ha         1 6UU       0.077000
     20 H5           2.9190     0.9760    -1.0480 hn         1 6UU       0.370000
     21 H6           0.7340     1.5720    -1.2250 h1         1 6UU      -0.016300
     22 H7           0.7930    -0.1400    -0.8070 h1         1 6UU      -0.016300
     23 H8           0.2980     0.4440     1.5840 hc         1 6UU       0.066200
     24 H9           0.3810     2.1570     1.1970 hc         1 6UU       0.066200
     25 H11         -2.0000     3.3000     0.5430 h4         1 6UU       0.188000
     26 H10         -4.3460     2.3830    -0.1180 hn         1 6UU       0.315000
     27 C6           0.1100     1.1750     0.7920 c3         1 6UU      -0.046200
@<TRIPOS>BOND
     1     1     2 ar  
     2     1    10 1   
     3     1    13 ar  
     4     2     3 ar  
     5     2    16 1   
     6     3     4 ar  
     7     3    17 1   
     8     4     5 ar  
     9     4    18 1   
    10     5    13 ar  
    11     5    19 1   
    12     6     7 1   
    13     6     8 1   
    14     6    14 1   
    15     6    15 1   
    16     8     9 1   
    17     8    20 1   
    18     9    21 1   
    19     9    22 1   
    20     9    27 1   
    21    10    11 2   
    22    10    27 1   
    23    11    12 1   
    24    11    25 1   
    25    12    13 1   
    26    12    26 1   
    27    23    27 1   
    28    24    27 1   
@<TRIPOS>SUBSTRUCTURE
     1 6UU         1 TEMP              0 ****  ****    0 ROOT
