@<TRIPOS>MOLECULE
6UU
   27    28     1     0     0
SMALL
abcg2


@<TRIPOS>ATOM
      1 C11         -2.0100     0.0940     0.2130 ca         1 6UU      -0.102800
      2 C12         -1.5860    -1.2390     0.2720 ca         1 6UU       0.009000
      3 C13         -2.4950    -2.2350    -0.0300 ca         1 6UU      -0.182000
      4 C14         -3.8190    -1.9260    -0.3900 ca         1 6UU      -0.100000
      5 C15         -4.2630    -0.6180    -0.4530 ca         1 6UU      -0.187000
      6 P1           2.8570    -0.6690     0.3470 p5         1 6UU       1.211800
      7 O2           4.2990    -0.5470     0.8500 o          1 6UU      -0.931500
      8 N4           2.3930     1.0080     0.0590 n7         1 6UU      -0.890500
      9 C5           1.0180     1.1970    -0.3670 c3         1 6UU       0.234800
     10 C7          -1.3470     1.3420     0.4600 cc         1 6UU      -0.042400
     11 C8          -2.2840     2.3110     0.2410 cd         1 6UU      -0.245100
     12 N9          -3.4810     1.7430    -0.1200 na         1 6UU      -0.253700
     13 C10         -3.3440     0.3870    -0.1470 ca         1 6UU      -0.053200
     14 O3           2.7420    -1.4080    -0.9910 o          1 6UU      -0.931500
     15 O1           1.8590    -1.1640     1.4010 o          1 6UU      -0.931500
     16 H1          -0.5620    -1.4680     0.5510 ha         1 6UU       0.213000
     17 H2          -2.1890    -3.2730     0.0080 ha         1 6UU       0.105000
     18 H3          -4.5070    -2.7290    -0.6220 ha         1 6UU       0.075000
     19 H4          -5.2830    -0.3840    -0.7290 ha         1 6UU       0.077000
     20 H5           3.0170     1.4140    -0.6270 hn         1 6UU       0.370000
     21 H6           0.9540     2.0350    -1.0680 h1         1 6UU      -0.016300
     22 H7           0.6300     0.3250    -0.9100 h1         1 6UU      -0.016300
     23 H8           0.3510     0.7770     1.6060 hc         1 6UU       0.066200
     24 H9           0.2930     2.4920     1.2050 hc         1 6UU       0.066200
     25 H11         -2.1920     3.3830     0.3160 h4         1 6UU       0.188000
     26 H10         -4.3190     2.2540    -0.3370 hn         1 6UU       0.315000
     27 C6           0.0920     1.4880     0.8190 c3         1 6UU      -0.046200
@<TRIPOS>BOND
     1     1     2 ar  
     2     1    10 1   
     3     1    13 ar  
     4     2     3 ar  
     5     2    16 1   
     6     3     4 ar  
     7     3    17 1   
     8     4     5 ar  
     9     4    18 1   
    10     5    13 ar  
    11     5    19 1   
    12     6     7 1   
    13     6     8 1   
    14     6    14 1   
    15     6    15 1   
    16     8     9 1   
    17     8    20 1   
    18     9    21 1   
    19     9    22 1   
    20     9    27 1   
    21    10    11 2   
    22    10    27 1   
    23    11    12 1   
    24    11    25 1   
    25    12    13 1   
    26    12    26 1   
    27    23    27 1   
    28    24    27 1   
@<TRIPOS>SUBSTRUCTURE
     1 6UU         1 TEMP              0 ****  ****    0 ROOT
