@<TRIPOS>MOLECULE
6UV
   53    55     1     0     0
SMALL
bcc


@<TRIPOS>ATOM
      1 N1           6.4450    -1.4070    -0.4140 nb         1 6UV      -0.820000
      2 C2           6.1680    -1.9760     0.7510 ca         1 6UV       0.975900
      3 NA2          6.9950    -2.9370     1.1830 nv         1 6UV      -0.966500
      4 N3           5.1340    -1.6960     1.5780 nb         1 6UV      -0.884000
      5 C4           4.3030    -0.7460     1.2140 ca         1 6UV       0.731900
      6 NA4          3.2610    -0.4270     1.9730 nv         1 6UV      -0.928500
      7 C4A          4.5120    -0.0310    -0.0200 ca         1 6UV       0.038000
      8 N5           3.6860     0.9490    -0.3800 nb         1 6UV      -0.580000
      9 C6           3.9150     1.5490    -1.5190 ca         1 6UV       0.217300
     10 C7           5.0080     1.1440    -2.3160 ca         1 6UV       0.345900
     11 N8           5.8360     0.1910    -1.9740 nb         1 6UV      -0.652000
     12 C8A          5.6100    -0.4310    -0.7960 ca         1 6UV       0.636000
     13 C9           3.0030     2.6720    -1.9540 c3         1 6UV       0.188500
     14 N10          1.9320     2.9330    -1.0300 nh         1 6UV      -0.665000
     15 CM           2.2340     3.8150     0.0760 c3         1 6UV       0.215100
     16 C11         -1.2670     0.2120    -0.6510 ca         1 6UV      -0.140600
     17 C12         -1.0020     1.1650     0.3290 ca         1 6UV      -0.061000
     18 C13          0.0570     2.0470     0.2200 ca         1 6UV      -0.216500
     19 C14          0.9120     2.0250    -0.8960 ca         1 6UV       0.168600
     20 C15          0.6560     1.0440    -1.8730 ca         1 6UV      -0.216500
     21 C16         -0.4000     0.1680    -1.7440 ca         1 6UV      -0.061000
     22 O           -2.3710    -1.7860    -1.2760 o          1 6UV      -0.644100
     23 N           -3.4220    -0.4560     0.2030 ns         1 6UV      -0.490900
     24 CA          -4.4810    -1.3940     0.4950 c3         1 6UV      -0.046300
     25 CT          -4.0140    -2.5620     1.4020 c          1 6UV       0.930600
     26 O1          -4.8100    -3.5210     1.4720 o          1 6UV      -0.848800
     27 O2          -2.9280    -2.4420     1.9920 o          1 6UV      -0.848800
     28 CB          -5.6610    -0.6630     1.1370 c3         1 6UV      -0.057400
     29 CG          -6.2460     0.4390     0.2670 c3         1 6UV      -0.202400
     30 CD          -7.5100     1.1230     0.8190 c          1 6UV       0.923600
     31 OE1         -7.9120     0.7810     1.9480 o          1 6UV      -0.865800
     32 OE2         -8.0310     1.9840     0.0780 o          1 6UV      -0.865800
     33 H1           7.7510    -3.2550     0.6030 hn         1 6UV       0.445300
     34 H2           6.7940    -3.4370     2.0300 hn         1 6UV       0.445300
     35 H3           3.0700    -0.9270     2.8240 hn         1 6UV       0.466300
     36 H4           2.6040     0.2690     1.6580 hn         1 6UV       0.466300
     37 H5           5.1930     1.6370    -3.2660 h4         1 6UV       0.018100
     38 H6           3.5890     3.5860    -2.0670 h1         1 6UV       0.054700
     39 H7           2.6150     2.4650    -2.9550 h1         1 6UV       0.054700
     40 H8           1.3730     4.4360     0.3290 h1         1 6UV       0.027700
     41 H9           2.5470     3.2780     0.9770 h1         1 6UV       0.027700
     42 H10          3.0390     4.4880    -0.2120 h1         1 6UV       0.027700
     43 H11         -1.6050     1.2270     1.2270 ha         1 6UV       0.145500
     44 H12          0.2180     2.7490     1.0250 ha         1 6UV       0.113000
     45 H13          1.2850     0.9540    -2.7480 ha         1 6UV       0.113000
     46 H14         -0.5590    -0.5710    -2.5180 ha         1 6UV       0.145500
     47 H15         -3.3620     0.3620     0.7860 hn         1 6UV       0.294500
     48 H16         -4.8260    -1.8230    -0.4500 h1         1 6UV       0.055700
     49 H18         -6.4270    -1.4080     1.3520 hc         1 6UV       0.050700
     50 H19         -5.3530    -0.2530     2.1050 hc         1 6UV       0.050700
     51 H20         -5.4990     1.2200     0.0880 hc         1 6UV       0.009700
     52 H21         -6.4760     0.0370    -0.7270 hc         1 6UV       0.009700
     53 C           -2.3860    -0.7680    -0.5880 c          1 6UV       0.669700
@<TRIPOS>BOND
     1     1     2 ar  
     2     1    12 ar  
     3     2     3 1   
     4     2     4 ar  
     5     3    33 1   
     6     3    34 1   
     7     4     5 ar  
     8     5     6 1   
     9     5     7 ar  
    10     6    35 1   
    11     6    36 1   
    12     7     8 ar  
    13     7    12 ar  
    14     8     9 ar  
    15     9    10 ar  
    16     9    13 1   
    17    10    11 ar  
    18    10    37 1   
    19    11    12 ar  
    20    13    14 1   
    21    13    38 1   
    22    13    39 1   
    23    14    15 1   
    24    14    19 1   
    25    15    40 1   
    26    15    41 1   
    27    15    42 1   
    28    16    17 ar  
    29    16    21 ar  
    30    16    53 1   
    31    17    18 ar  
    32    17    43 1   
    33    18    19 ar  
    34    18    44 1   
    35    19    20 ar  
    36    20    21 ar  
    37    20    45 1   
    38    21    46 1   
    39    22    53 2   
    40    23    24 1   
    41    23    47 1   
    42    23    53 1   
    43    24    25 1   
    44    24    28 1   
    45    24    48 1   
    46    25    26 1   
    47    25    27 1   
    48    28    29 1   
    49    28    49 1   
    50    28    50 1   
    51    29    30 1   
    52    29    51 1   
    53    29    52 1   
    54    30    31 1   
    55    30    32 1   
@<TRIPOS>SUBSTRUCTURE
     1 6UV         1 TEMP              0 ****  ****    0 ROOT
