@<TRIPOS>MOLECULE
6UV
   53    55     1     0     0
SMALL
No Charge or Current Charge


@<TRIPOS>ATOM
      1 N1           5.3240    -2.3510    -0.2000 nb         1 6UV      -0.294000
      2 C2           6.2810    -2.3760     0.7340 ca         1 6UV       0.449900
      3 NA2          6.8090    -3.5850     1.0120 nv         1 6UV      -1.076900
      4 N3           6.7770    -1.3580     1.4300 nb         1 6UV      -0.358000
      5 C4           6.2460    -0.1670     1.1450 ca         1 6UV       0.468900
      6 NA4          6.7730     0.8610     1.8720 nv         1 6UV      -1.038900
      7 C4A          5.2160     0.0210     0.1780 ca         1 6UV       0.038000
      8 N5           4.6800     1.2490    -0.0860 nb         1 6UV      -0.580000
      9 C6           3.7010     1.3100    -1.0230 ca         1 6UV       0.217300
     10 C7           3.2680     0.1520    -1.6940 ca         1 6UV       0.082900
     11 N8           3.7920    -1.0620    -1.4360 nb         1 6UV      -0.126000
     12 C8A          4.7660    -1.1570    -0.5030 ca         1 6UV       0.110000
     13 C9           3.0820     2.6810    -1.3340 c3         1 6UV       0.188500
     14 N10          1.8550     3.0230    -0.5570 nh         1 6UV      -0.803400
     15 CM           2.0020     4.0340     0.5130 c3         1 6UV       0.215100
     16 C11         -1.5960     0.5340    -0.7900 ca         1 6UV      -0.140600
     17 C12         -1.0960     0.9600     0.4640 ca         1 6UV      -0.043000
     18 C13          0.0400     1.7840     0.5370 ca         1 6UV      -0.198500
     19 C14          0.7050     2.2030    -0.6290 ca         1 6UV       0.307000
     20 C15          0.2090     1.7840    -1.8750 ca         1 6UV      -0.198500
     21 C16         -0.9260     0.9610    -1.9580 ca         1 6UV      -0.043000
     22 O           -3.2470    -0.7160    -2.0060 o          1 6UV      -0.644100
     23 N           -3.4230    -0.7430     0.2650 ns         1 6UV      -0.423900
     24 CA          -4.6490    -1.5720     0.3810 c3         1 6UV      -0.046300
     25 CT          -4.4780    -2.6200     1.5230 c          1 6UV       0.720000
     26 O1          -4.6610    -3.8000     1.2580 o          1 6UV      -0.743500
     27 O2          -4.0790    -2.2360     2.6150 o          1 6UV      -0.743500
     28 CB          -5.9220    -0.7100     0.5970 c3         1 6UV      -0.057400
     29 CG          -6.2550     0.2610    -0.5670 c3         1 6UV      -0.202400
     30 CD          -7.5920     0.9760    -0.2940 c          1 6UV       0.713000
     31 OE1         -7.5710     2.0220     0.3370 o          1 6UV      -0.760500
     32 OE2         -8.6220     0.4410    -0.6770 o          1 6UV      -0.760500
     33 H1           6.3030    -4.4080     0.6950 hn         1 6UV       0.500500
     34 H2           7.3500    -3.6850     1.8680 hn         1 6UV       0.500500
     35 H3           7.2490     0.6320     2.7390 hn         1 6UV       0.521500
     36 H4           6.2600     1.7390     1.8520 hn         1 6UV       0.521500
     37 H5           2.4880     0.1940    -2.4530 h4         1 6UV       0.018100
     38 H6           3.8530     3.4450    -1.1630 h1         1 6UV       0.054700
     39 H7           2.8610     2.7240    -2.4080 h1         1 6UV       0.054700
     40 H8           1.0210     4.4300     0.8080 h1         1 6UV       0.027700
     41 H9           2.4860     3.5930     1.3950 h1         1 6UV       0.027700
     42 H10          2.6100     4.8800     0.1640 h1         1 6UV       0.027700
     43 H11         -1.5730     0.6610     1.3940 ha         1 6UV       0.127500
     44 H12          0.4090     2.0840     1.5130 ha         1 6UV       0.095000
     45 H13          0.6970     2.1040    -2.7910 ha         1 6UV       0.095000
     46 H14         -1.2860     0.6560    -2.9390 ha         1 6UV       0.127500
     47 H15         -2.9910    -0.4290     1.1230 hn         1 6UV       0.294500
     48 H16         -4.7740    -2.1400    -0.5500 h1         1 6UV       0.055700
     49 H18         -6.7740    -1.3860     0.7420 hc         1 6UV       0.050700
     50 H19         -5.8180    -0.1370     1.5270 hc         1 6UV       0.050700
     51 H20         -5.4350     0.9890    -0.6010 hc         1 6UV       0.009700
     52 H21         -6.3300    -0.3630    -1.4650 hc         1 6UV       0.009700
     53 C           -2.8200    -0.3540    -0.9160 c          1 6UV       0.602700
@<TRIPOS>BOND
     1     1     2 ar  
     2     1    12 ar  
     3     2     3 1   
     4     2     4 ar  
     5     3    33 1   
     6     3    34 1   
     7     4     5 ar  
     8     5     6 1   
     9     5     7 ar  
    10     6    35 1   
    11     6    36 1   
    12     7     8 ar  
    13     7    12 ar  
    14     8     9 ar  
    15     9    10 ar  
    16     9    13 1   
    17    10    11 ar  
    18    10    37 1   
    19    11    12 ar  
    20    13    14 1   
    21    13    38 1   
    22    13    39 1   
    23    14    15 1   
    24    14    19 1   
    25    15    40 1   
    26    15    41 1   
    27    15    42 1   
    28    16    17 ar  
    29    16    21 ar  
    30    16    53 1   
    31    17    18 ar  
    32    17    43 1   
    33    18    19 ar  
    34    18    44 1   
    35    19    20 ar  
    36    20    21 ar  
    37    20    45 1   
    38    21    46 1   
    39    22    53 2   
    40    23    24 1   
    41    23    47 1   
    42    23    53 1   
    43    24    25 1   
    44    24    28 1   
    45    24    48 1   
    46    25    26 1   
    47    25    27 1   
    48    28    29 1   
    49    28    49 1   
    50    28    50 1   
    51    29    30 1   
    52    29    51 1   
    53    29    52 1   
    54    30    31 1   
    55    30    32 1   
@<TRIPOS>SUBSTRUCTURE
     1 6UV         1 TEMP              0 ****  ****    0 ROOT
