@<TRIPOS>MOLECULE
6UW
   32    34     1     0     0
SMALL
abcg2


@<TRIPOS>ATOM
      1 C10         -1.0560    -0.4790     0.9270 c          1 6UW       0.588600
      2 O11         -1.2040    -1.5790     1.4280 o          1 6UW      -0.505000
      3 C13         -0.0120     1.5020     0.2100 c5         1 6UW       0.151300
      4 C15          2.4080    -0.3950     0.3390 ca         1 6UW      -0.131300
      5 C14          1.3610    -0.2390     1.4130 c3         1 6UW       0.164300
      6 C16          3.4050     0.5430     0.0760 ca         1 6UW       0.149000
      7 C17          4.3420     0.3690    -0.9320 ca         1 6UW      -0.136000
      8 C01         -3.5070     2.2450    -1.1260 ca         1 6UW      -0.110000
      9 C02         -2.1600     2.4900    -0.8790 ca         1 6UW      -0.143000
     10 C03         -1.4530     1.5260    -0.1870 ca         1 6UW      -0.103300
     11 C04         -2.0700     0.3640     0.2560 ca         1 6UW      -0.146600
     12 C05         -3.4170     0.1060     0.0280 ca         1 6UW      -0.033600
     13 C06         -4.1200     1.0730    -0.6900 ca         1 6UW      -0.113000
     14 C07         -4.1290    -1.1380     0.5300 c          1 6UW       0.724600
     15 O08         -4.4050    -1.9890    -0.3320 o          1 6UW      -0.701500
     16 O09         -4.3980    -1.1530     1.7420 o          1 6UW      -0.701500
     17 N12          0.1070     0.2250     0.8760 n          1 6UW      -0.439800
     18 C18          4.2900    -0.7730    -1.7140 ca         1 6UW      -0.082000
     19 C19          3.3110    -1.7300    -1.4980 ca         1 6UW      -0.160000
     20 C20          2.3990    -1.5140    -0.4860 ca         1 6UW       0.205000
     21 F21          1.4460    -2.4330    -0.2810 f          1 6UW      -0.148000
     22 CL           3.4950     1.9970     1.0170 cl         1 6UW      -0.209000
     23 H1           0.6540     1.5660    -0.6560 h1         1 6UW       0.039700
     24 H2           0.2420     2.3270     0.8830 h1         1 6UW       0.039700
     25 H3           1.1810    -1.1930     1.9060 h1         1 6UW       0.068200
     26 H4           1.7120     0.4480     2.1840 h1         1 6UW       0.068200
     27 H5           5.1000     1.1190    -1.1060 ha         1 6UW       0.124000
     28 H6          -4.0900     2.9750    -1.6710 ha         1 6UW       0.087000
     29 H7          -1.6880     3.4010    -1.2250 ha         1 6UW       0.091000
     30 H8          -5.1690     0.9190    -0.9090 ha         1 6UW       0.115000
     31 H10          5.0180    -0.9160    -2.5010 ha         1 6UW       0.113000
     32 H11          3.2550    -2.6260    -2.1010 ha         1 6UW       0.134000
@<TRIPOS>BOND
     1     1     2 2   
     2     1    11 1   
     3     1    17 1   
     4     3    10 1   
     5     3    17 1   
     6     3    23 1   
     7     3    24 1   
     8     4     5 1   
     9     4     6 ar  
    10     4    20 ar  
    11     5    17 1   
    12     5    25 1   
    13     5    26 1   
    14     6     7 ar  
    15     6    22 1   
    16     7    18 ar  
    17     7    27 1   
    18     8     9 ar  
    19     8    13 ar  
    20     8    28 1   
    21     9    10 ar  
    22     9    29 1   
    23    10    11 ar  
    24    11    12 ar  
    25    12    13 ar  
    26    12    14 1   
    27    13    30 1   
    28    14    15 1   
    29    14    16 1   
    30    18    19 ar  
    31    18    31 1   
    32    19    20 ar  
    33    19    32 1   
    34    20    21 1   
@<TRIPOS>SUBSTRUCTURE
     1 6UW         1 TEMP              0 ****  ****    0 ROOT
