@<TRIPOS>MOLECULE
6UW
   32    34     1     0     0
SMALL
No Charge or Current Charge


@<TRIPOS>ATOM
      1 C10         -1.2540    -0.4970     1.0320 c          1 6UW       0.588600
      2 O11         -1.4560    -1.1880     2.0200 o          1 6UW      -0.505000
      3 C13         -0.1250     0.4780    -0.8750 c5         1 6UW       0.151300
      4 C15          2.4340    -0.7230     0.0930 ca         1 6UW      -0.131300
      5 C14          1.1310    -1.1980     0.7320 c3         1 6UW       0.164300
      6 C16          3.1380     0.3850     0.6150 ca         1 6UW       0.149000
      7 C17          4.3320     0.8180     0.0120 ca         1 6UW      -0.136000
      8 C01         -3.6080     2.1060    -1.3550 ca         1 6UW      -0.110000
      9 C02         -2.2580     1.8060    -1.6260 ca         1 6UW      -0.143000
     10 C03         -1.5720     0.9380    -0.7630 ca         1 6UW      -0.103300
     11 C04         -2.2120     0.3890     0.3370 ca         1 6UW      -0.146600
     12 C05         -3.5600     0.6750     0.6420 ca         1 6UW      -0.033600
     13 C06         -4.2540     1.5440    -0.2320 ca         1 6UW      -0.113000
     14 C07         -4.2540     0.0910     1.8500 c          1 6UW       0.724600
     15 O08         -5.1500    -0.7210     1.6600 o          1 6UW      -0.701500
     16 O09         -3.9550     0.5260     2.9540 o          1 6UW      -0.701500
     17 N12         -0.0510    -0.4200     0.3170 n          1 6UW      -0.439800
     18 C18          4.8380     0.1560    -1.1170 ca         1 6UW      -0.082000
     19 C19          4.1420    -0.9430    -1.6460 ca         1 6UW      -0.160000
     20 C20          2.9490    -1.3770    -1.0460 ca         1 6UW       0.205000
     21 F21          2.2950    -2.4310    -1.5840 f          1 6UW      -0.148000
     22 Cl           2.5430     1.2670     2.0230 cl         1 6UW      -0.209000
     23 H1           0.0580    -0.0680    -1.8090 h1         1 6UW       0.039700
     24 H2           0.5750     1.3200    -0.7980 h1         1 6UW       0.039700
     25 H3           0.9540    -2.2520     0.4830 h1         1 6UW       0.068200
     26 H4           1.2250    -1.1500     1.8240 h1         1 6UW       0.068200
     27 H5           4.8650     1.6720     0.4230 ha         1 6UW       0.124000
     28 H6          -4.1550     2.7740    -2.0150 ha         1 6UW       0.087000
     29 H7          -1.7580     2.2370    -2.4900 ha         1 6UW       0.091000
     30 H8          -5.2950     1.7870    -0.0330 ha         1 6UW       0.115000
     31 H10          5.7620     0.4940    -1.5820 ha         1 6UW       0.113000
     32 H11          4.5240    -1.4590    -2.5240 ha         1 6UW       0.134000
@<TRIPOS>BOND
     1     1     2 2   
     2     1    11 1   
     3     1    17 1   
     4     3    10 1   
     5     3    17 1   
     6     3    23 1   
     7     3    24 1   
     8     4     5 1   
     9     4     6 ar  
    10     4    20 ar  
    11     5    17 1   
    12     5    25 1   
    13     5    26 1   
    14     6     7 ar  
    15     6    22 1   
    16     7    18 ar  
    17     7    27 1   
    18     8     9 ar  
    19     8    13 ar  
    20     8    28 1   
    21     9    10 ar  
    22     9    29 1   
    23    10    11 ar  
    24    11    12 ar  
    25    12    13 ar  
    26    12    14 1   
    27    13    30 1   
    28    14    15 1   
    29    14    16 1   
    30    18    19 ar  
    31    18    31 1   
    32    19    20 ar  
    33    19    32 1   
    34    20    21 1   
@<TRIPOS>SUBSTRUCTURE
     1 6UW         1 TEMP              0 ****  ****    0 ROOT
