@<TRIPOS>MOLECULE
6UX
   62    65     1     0     0
SMALL
No Charge or Current Charge


@<TRIPOS>ATOM
      1 F1         -12.0550    -0.8110     0.2380 f          1 6UX      -0.109667
      2 C1         -12.3130     0.4760    -0.0910 c3         1 6UX       0.512000
      3 F2         -12.1760     0.5990    -1.4310 f          1 6UX      -0.109667
      4 F3         -13.6150     0.6990     0.1930 f          1 6UX      -0.109667
      5 OH         -11.4700     1.4000     0.6290 os         1 6UX      -0.397100
      6 CZ         -10.0880     1.4190     0.5450 ca         1 6UX       0.059100
      7 CE1         -9.3410     0.5290    -0.2610 ca         1 6UX      -0.067000
      8 CD1         -7.9360     0.6110    -0.2940 ca         1 6UX      -0.148500
      9 CG          -7.2540     1.5790     0.4740 ca         1 6UX       0.009000
     10 CD2         -8.0050     2.4600     1.2740 ca         1 6UX      -0.148500
     11 CE2         -9.4080     2.3810     1.3080 ca         1 6UX      -0.067000
     12 N1          -5.8380     1.7220     0.4920 ns         1 6UX      -0.160000
     13 C8          -4.8200     1.0420    -0.1630 c          1 6UX       0.672100
     14 O           -4.9990     0.1150    -0.9440 o          1 6UX      -0.596100
     15 N           -3.5740     1.5490     0.1780 ns         1 6UX      -0.162000
     16 CA          -2.2530     1.1950    -0.2170 ca         1 6UX      -0.002000
     17 C10         -1.1910     1.9470     0.3200 ca         1 6UX      -0.144500
     18 C11          0.1410     1.6560    -0.0240 ca         1 6UX      -0.078000
     19 C12          0.4420     0.6040    -0.9100 ca         1 6UX       0.238000
     20 C13         -0.6210    -0.1460    -1.4500 ca         1 6UX      -0.078000
     21 C14         -1.9550     0.1420    -1.1080 ca         1 6UX      -0.144500
     22 N3           1.7850     0.3150    -1.2600 nh         1 6UX      -0.808100
     23 C15          2.1380     0.2180    -2.7020 c3         1 6UX       0.227100
     24 C16          2.7980     0.1820    -0.2790 ca         1 6UX       0.426900
     25 N4           4.0730     0.3590    -0.6740 nb         1 6UX      -0.329000
     26 C17          5.0210     0.2280     0.2630 ca         1 6UX       0.419900
     27 N5           4.8380    -0.0880     1.5560 nb         1 6UX      -0.267000
     28 C18          3.5670    -0.2750     1.9510 ca         1 6UX       0.162900
     29 C19          2.4990    -0.1490     1.0520 ca         1 6UX      -0.316000
     30 N6           6.3130     0.3960    -0.2090 nu         1 6UX      -0.934900
     31 C20          7.5810     0.4580     0.3870 ca         1 6UX       0.311000
     32 C21          8.7070     0.1130    -0.3850 ca         1 6UX      -0.092000
     33 C22         10.0100     0.1680     0.1630 ca         1 6UX      -0.233500
     34 C23         10.1820     0.5870     1.4980 ca         1 6UX      -0.040000
     35 C24          9.0650     0.9470     2.2690 ca         1 6UX      -0.103000
     36 C25          7.7730     0.8860     1.7170 ca         1 6UX      -0.089000
     37 S1          11.4400    -0.2840    -0.8360 sy         1 6UX       1.124600
     38 O3          12.5910    -0.5990     0.0080 o          1 6UX      -0.546000
     39 O4          11.0460    -1.1270    -1.9630 o          1 6UX      -0.546000
     40 N7          11.8600     1.1240    -1.5440 n8         1 6UX      -1.004100
     41 H1          -9.8250    -0.2300    -0.8680 ha         1 6UX       0.137000
     42 H2          -7.4010    -0.0910    -0.9250 ha         1 6UX       0.136500
     43 H3          -7.5010     3.2150     1.8750 ha         1 6UX       0.136500
     44 H4          -9.9730     3.0690     1.9320 ha         1 6UX       0.137000
     45 H5          -5.5150     2.4620     1.1000 hn         1 6UX       0.149000
     46 H6          -3.6060     2.3170     0.8350 hn         1 6UX       0.149000
     47 H7          -1.3960     2.7650     1.0070 ha         1 6UX       0.133000
     48 H8           0.9460     2.2540     0.3950 ha         1 6UX       0.129000
     49 H9          -0.4100    -0.9670    -2.1300 ha         1 6UX       0.129000
     50 H10         -2.7370    -0.4690    -1.5470 ha         1 6UX       0.133000
     51 H11          2.8410     1.0130    -2.9860 h1         1 6UX       0.046367
     52 H12          2.5880    -0.7590    -2.9250 h1         1 6UX       0.046367
     53 H13          1.2490     0.3290    -3.3370 h1         1 6UX       0.046367
     54 H14          3.4050    -0.5350     2.9960 h4         1 6UX       0.020100
     55 H15          1.4810    -0.3210     1.3840 ha         1 6UX       0.142000
     56 H16          6.3380     0.4090    -1.2280 hn         1 6UX       0.510000
     57 H17          8.5680    -0.2060    -1.4150 ha         1 6UX       0.133000
     58 H18         11.1770     0.6430     1.9380 ha         1 6UX       0.138000
     59 H19          9.2000     1.2810     3.2960 ha         1 6UX       0.119000
     60 H20          6.9270     1.1930     2.3220 ha         1 6UX       0.156000
     61 H21         12.8480     1.1630    -1.3020 hn         1 6UX       0.473000
     62 H22         11.8900     0.8360    -2.5190 hn         1 6UX       0.473000
@<TRIPOS>BOND
     1     1     2 1   
     2     2     3 1   
     3     2     4 1   
     4     2     5 1   
     5     5     6 1   
     6     6     7 ar  
     7     6    11 ar  
     8     7     8 ar  
     9     7    41 1   
    10     8     9 ar  
    11     8    42 1   
    12     9    10 ar  
    13     9    12 1   
    14    10    11 ar  
    15    10    43 1   
    16    11    44 1   
    17    12    13 1   
    18    12    45 1   
    19    13    14 2   
    20    13    15 1   
    21    15    16 1   
    22    15    46 1   
    23    16    17 ar  
    24    16    21 ar  
    25    17    18 ar  
    26    17    47 1   
    27    18    19 ar  
    28    18    48 1   
    29    19    20 ar  
    30    19    22 1   
    31    20    21 ar  
    32    20    49 1   
    33    21    50 1   
    34    22    23 1   
    35    22    24 1   
    36    23    51 1   
    37    23    52 1   
    38    23    53 1   
    39    24    25 ar  
    40    24    29 ar  
    41    25    26 ar  
    42    26    27 ar  
    43    26    30 1   
    44    27    28 ar  
    45    28    29 ar  
    46    28    54 1   
    47    29    55 1   
    48    30    31 1   
    49    30    56 1   
    50    31    32 ar  
    51    31    36 ar  
    52    32    33 ar  
    53    32    57 1   
    54    33    34 ar  
    55    33    37 1   
    56    34    35 ar  
    57    34    58 1   
    58    35    36 ar  
    59    35    59 1   
    60    36    60 1   
    61    37    38 2   
    62    37    39 2   
    63    37    40 1   
    64    40    61 1   
    65    40    62 1   
@<TRIPOS>SUBSTRUCTURE
     1 6UX         1 TEMP              0 ****  ****    0 ROOT
