@<TRIPOS>MOLECULE
6UX
   62    65     1     0     0
SMALL
abcg2


@<TRIPOS>ATOM
      1 F1         -11.5000     0.9130     2.4680 f          1 6UX      -0.109667
      2 C1         -11.5680    -0.0470     1.5420 c3         1 6UX       0.512000
      3 F2         -10.9130    -1.1010     2.0340 f          1 6UX      -0.109667
      4 F3         -12.8390    -0.3820     1.3840 f          1 6UX      -0.109667
      5 OH         -11.1000     0.3470     0.3520 os         1 6UX      -0.397100
      6 CZ          -9.7630     0.7300     0.2780 ca         1 6UX       0.059100
      7 CE1         -8.8020    -0.2050    -0.0540 ca         1 6UX      -0.067000
      8 CD1         -7.4750     0.1740    -0.1920 ca         1 6UX      -0.148500
      9 CG          -7.1040     1.5060     0.0090 ca         1 6UX       0.009000
     10 CD2         -8.0970     2.4360     0.3370 ca         1 6UX      -0.148500
     11 CE2         -9.4190     2.0560     0.4710 ca         1 6UX      -0.067000
     12 N1          -5.8070     1.9990    -0.1040 ns         1 6UX      -0.160000
     13 C8          -4.6560     1.3120    -0.3820 c          1 6UX       0.672100
     14 O           -4.6120     0.1140    -0.5910 o          1 6UX      -0.596100
     15 N           -3.5570     2.1300    -0.4020 ns         1 6UX      -0.162000
     16 CA          -2.2370     1.7680    -0.6670 ca         1 6UX      -0.002000
     17 C10         -1.2420     2.6620    -0.2590 ca         1 6UX      -0.144500
     18 C11          0.0910     2.4080    -0.5180 ca         1 6UX      -0.078000
     19 C12          0.4670     1.2430    -1.1770 ca         1 6UX       0.238000
     20 C13         -0.5170     0.3520    -1.5800 ca         1 6UX      -0.078000
     21 C14         -1.8590     0.6050    -1.3410 ca         1 6UX      -0.144500
     22 N3           1.8320     0.9770    -1.4640 nh         1 6UX      -0.808100
     23 C15          2.3250     1.3170    -2.7870 c3         1 6UX       0.227100
     24 C16          2.6880     0.6240    -0.4790 ca         1 6UX       0.426900
     25 N4           3.9810     0.5790    -0.7830 nb         1 6UX      -0.329000
     26 C17          4.8330     0.2110     0.1730 ca         1 6UX       0.419900
     27 N5           4.5320    -0.1070     1.4210 nb         1 6UX      -0.267000
     28 C18          3.2280    -0.0590     1.7160 ca         1 6UX       0.162900
     29 C19          2.2500     0.2910     0.8250 ca         1 6UX      -0.316000
     30 N6           6.1350     0.1770    -0.2480 nu         1 6UX      -0.934900
     31 C20          7.3100    -0.1180     0.4190 ca         1 6UX       0.311000
     32 C21          8.4820    -0.0830    -0.3490 ca         1 6UX      -0.092000
     33 C22          9.7000    -0.3560     0.2400 ca         1 6UX      -0.233500
     34 C23          9.8150    -0.6750     1.5870 ca         1 6UX      -0.040000
     35 C24          8.6520    -0.7120     2.3370 ca         1 6UX      -0.103000
     36 C25          7.4110    -0.4400     1.7750 ca         1 6UX      -0.089000
     37 S1          11.1660    -0.3010    -0.7530 sy         1 6UX       1.124600
     38 O3          12.1040    -1.3140    -0.2900 o          1 6UX      -0.546000
     39 O4          10.7610    -0.3220    -2.1520 o          1 6UX      -0.546000
     40 N7          11.8060     1.1490    -0.2930 n8         1 6UX      -1.004100
     41 H1          -9.0770    -1.2370    -0.2300 ha         1 6UX       0.137000
     42 H2          -6.7460    -0.5730    -0.4560 ha         1 6UX       0.136500
     43 H3          -7.8330     3.4750     0.4920 ha         1 6UX       0.136500
     44 H4         -10.1700     2.7980     0.7080 ha         1 6UX       0.137000
     45 H5          -5.7280     2.9950     0.0310 hn         1 6UX       0.149000
     46 H6          -3.6770     3.0800    -0.0850 hn         1 6UX       0.149000
     47 H7          -1.5190     3.5700     0.2630 ha         1 6UX       0.133000
     48 H8           0.8440     3.1200    -0.2020 ha         1 6UX       0.129000
     49 H9          -0.2340    -0.5550    -2.0980 ha         1 6UX       0.129000
     50 H10         -2.5940    -0.1060    -1.6810 ha         1 6UX       0.133000
     51 H11          2.7850     2.3080    -2.8070 h1         1 6UX       0.046367
     52 H12          3.0610     0.5920    -3.1270 h1         1 6UX       0.046367
     53 H13          1.4880     1.3120    -3.4800 h1         1 6UX       0.046367
     54 H14          2.9610    -0.3250     2.7320 h4         1 6UX       0.020100
     55 H15          1.2110     0.3010     1.1150 ha         1 6UX       0.142000
     56 H16          6.2370     0.4140    -1.2240 hn         1 6UX       0.510000
     57 H17          8.4210     0.1570    -1.4030 ha         1 6UX       0.133000
     58 H18         10.7730    -0.8880     2.0410 ha         1 6UX       0.138000
     59 H19          8.7040    -0.9600     3.3880 ha         1 6UX       0.119000
     60 H20          6.5250    -0.4800     2.3870 ha         1 6UX       0.156000
     61 H21         12.7990     1.2010    -0.5010 hn         1 6UX       0.473000
     62 H22         11.3190     1.9410    -0.6990 hn         1 6UX       0.473000
@<TRIPOS>BOND
     1     1     2 1   
     2     2     3 1   
     3     2     4 1   
     4     2     5 1   
     5     5     6 1   
     6     6     7 ar  
     7     6    11 ar  
     8     7     8 ar  
     9     7    41 1   
    10     8     9 ar  
    11     8    42 1   
    12     9    10 ar  
    13     9    12 1   
    14    10    11 ar  
    15    10    43 1   
    16    11    44 1   
    17    12    13 1   
    18    12    45 1   
    19    13    14 2   
    20    13    15 1   
    21    15    16 1   
    22    15    46 1   
    23    16    17 ar  
    24    16    21 ar  
    25    17    18 ar  
    26    17    47 1   
    27    18    19 ar  
    28    18    48 1   
    29    19    20 ar  
    30    19    22 1   
    31    20    21 ar  
    32    20    49 1   
    33    21    50 1   
    34    22    23 1   
    35    22    24 1   
    36    23    51 1   
    37    23    52 1   
    38    23    53 1   
    39    24    25 ar  
    40    24    29 ar  
    41    25    26 ar  
    42    26    27 ar  
    43    26    30 1   
    44    27    28 ar  
    45    28    29 ar  
    46    28    54 1   
    47    29    55 1   
    48    30    31 1   
    49    30    56 1   
    50    31    32 ar  
    51    31    36 ar  
    52    32    33 ar  
    53    32    57 1   
    54    33    34 ar  
    55    33    37 1   
    56    34    35 ar  
    57    34    58 1   
    58    35    36 ar  
    59    35    59 1   
    60    36    60 1   
    61    37    38 2   
    62    37    39 2   
    63    37    40 1   
    64    40    61 1   
    65    40    62 1   
@<TRIPOS>SUBSTRUCTURE
     1 6UX         1 TEMP              0 ****  ****    0 ROOT
