@<TRIPOS>MOLECULE
6UY
   42    44     1     0     0
SMALL
bcc


@<TRIPOS>ATOM
      1 C1           1.0070    -0.2420    -0.1480 c          1 6UY       0.680100
      2 C2           3.4350    -0.4800     0.2690 ca         1 6UY       0.056600
      3 C3           3.8730    -0.7570    -1.0250 ca         1 6UY      -0.136000
      4 C4           5.1860    -1.1470    -1.2440 ca         1 6UY      -0.144000
      5 C5           6.0530    -1.2520    -0.1760 ca         1 6UY       0.111900
      6 C6           5.6470    -0.9740     1.1140 ca         1 6UY      -0.144000
      7 C7           4.3340    -0.5920     1.3300 ca         1 6UY      -0.136000
      8 N1           2.1330    -0.0590     0.5760 ns         1 6UY      -0.473100
      9 N2          -3.3090    -1.7620    -0.8200 nb         1 6UY      -0.544000
     10 N3          -5.8610    -1.6320     0.2170 nb         1 6UY      -0.747000
     11 N4          -5.2550    -0.0200     1.7020 nv         1 6UY      -0.951500
     12 C8          -0.2120     0.4360     0.4820 c3         1 6UY       0.115400
     13 O1           0.9410    -0.8220    -1.2110 o          1 6UY      -0.539100
     14 F1           7.3230    -1.6290    -0.3970 f          1 6UY      -0.143900
     15 O2          -1.3290    -0.3300     0.0680 os         1 6UY      -0.347900
     16 C9          -2.4810    -0.0900     0.6840 c          1 6UY       0.577600
     17 C10         -3.5830    -0.9240     0.1690 ca         1 6UY       0.149500
     18 C11         -4.2680    -2.5260    -1.2980 ca         1 6UY       0.200900
     19 C12         -5.5530    -2.4510    -0.7620 ca         1 6UY       0.382900
     20 C13         -4.8960    -0.8410     0.7130 ca         1 6UY       0.638900
     21 O3          -2.5990     0.7200     1.5750 o          1 6UY      -0.569000
     22 C14         -0.2810     1.8600    -0.0100 ca         1 6UY      -0.128300
     23 C15          0.0350     2.9080     0.8460 ca         1 6UY      -0.097500
     24 C16          0.0130     4.2180     0.3870 ca         1 6UY      -0.132000
     25 C17         -0.3360     4.4870    -0.9290 ca         1 6UY      -0.113000
     26 C18         -0.6580     3.4420    -1.7860 ca         1 6UY      -0.132000
     27 C19         -0.6260     2.1310    -1.3320 ca         1 6UY      -0.097500
     28 H1           3.2100    -0.6680    -1.8700 ha         1 6UY       0.148500
     29 H2           5.5260    -1.3620    -2.2490 ha         1 6UY       0.151500
     30 H3           6.3380    -1.0590     1.9430 ha         1 6UY       0.151500
     31 H4           4.0060    -0.3790     2.3400 ha         1 6UY       0.148500
     32 H5           2.0240     0.3510     1.4920 hn         1 6UY       0.319500
     33 H6          -4.5980     0.6030     2.1370 hn         1 6UY       0.462300
     34 H7          -6.2060    -0.0410     2.0280 hn         1 6UY       0.462300
     35 H8          -0.1280     0.4240     1.5730 h1         1 6UY       0.068700
     36 H9          -4.0310    -3.2050    -2.1070 h4         1 6UY       0.039100
     37 H10         -6.3460    -3.0830    -1.1460 h4         1 6UY       0.028100
     38 H11          0.2910     2.7050     1.8790 ha         1 6UY       0.141500
     39 H12          0.2580     5.0290     1.0610 ha         1 6UY       0.134000
     40 H13         -0.3610     5.5090    -1.2860 ha         1 6UY       0.132000
     41 H14         -0.9320     3.6470    -2.8120 ha         1 6UY       0.134000
     42 H15         -0.8720     1.3250    -2.0110 ha         1 6UY       0.141500
@<TRIPOS>BOND
     1     1     8 1   
     2     1    12 1   
     3     1    13 2   
     4     2     3 ar  
     5     2     7 ar  
     6     2     8 1   
     7     3     4 ar  
     8     3    28 1   
     9     4     5 ar  
    10     4    29 1   
    11     5     6 ar  
    12     5    14 1   
    13     6     7 ar  
    14     6    30 1   
    15     7    31 1   
    16     8    32 1   
    17     9    17 ar  
    18     9    18 ar  
    19    10    19 ar  
    20    10    20 ar  
    21    11    20 1   
    22    11    33 1   
    23    11    34 1   
    24    12    15 1   
    25    12    22 1   
    26    12    35 1   
    27    15    16 1   
    28    16    17 1   
    29    16    21 2   
    30    17    20 ar  
    31    18    19 ar  
    32    18    36 1   
    33    19    37 1   
    34    22    23 ar  
    35    22    27 ar  
    36    23    24 ar  
    37    23    38 1   
    38    24    25 ar  
    39    24    39 1   
    40    25    26 ar  
    41    25    40 1   
    42    26    27 ar  
    43    26    41 1   
    44    27    42 1   
@<TRIPOS>SUBSTRUCTURE
     1 6UY         1 TEMP              0 ****  ****    0 ROOT
