@<TRIPOS>MOLECULE
6UY
   42    44     1     0     0
SMALL
No Charge or Current Charge


@<TRIPOS>ATOM
      1 C1           1.0750    -0.6020    -0.1200 c          1 6UY       0.613100
      2 C2           3.6330    -0.4090     0.1140 ca         1 6UY      -0.036000
      3 C3           4.0420    -1.5040    -0.6820 ca         1 6UY      -0.118000
      4 C4           5.4110    -1.7570    -0.8910 ca         1 6UY      -0.126000
      5 C5           6.3760    -0.9240    -0.3070 ca         1 6UY       0.147000
      6 C6           5.9830     0.1620     0.4880 ca         1 6UY      -0.126000
      7 C7           4.6160     0.4160     0.6990 ca         1 6UY      -0.118000
      8 N1           2.2710    -0.0900     0.3740 ns         1 6UY      -0.147000
      9 N2          -3.6290    -1.7890    -1.0320 nb         1 6UY      -0.544000
     10 N3          -6.2430    -1.1560    -0.0010 nb         1 6UY      -0.747000
     11 N4          -5.4720     0.2060     1.5050 nv         1 6UY      -1.061900
     12 C8          -0.1840     0.0710     0.4960 c3         1 6UY       0.138600
     13 O1           1.0100    -1.4910    -0.9660 o          1 6UY      -0.539100
     14 F1           7.6890    -1.1690    -0.5090 f          1 6UY      -0.179000
     15 O2          -1.4100    -0.5380     0.0160 os         1 6UY      -0.371100
     16 C9          -2.5900    -0.2890     0.6820 c          1 6UY       0.528600
     17 C10         -3.8060    -0.9230     0.0220 ca         1 6UY       0.149500
     18 C11         -4.7660    -2.3250    -1.5530 ca         1 6UY       0.200900
     19 C12         -6.0540    -2.0140    -1.0430 ca         1 6UY       0.382900
     20 C13         -5.1240    -0.6250     0.5040 ca         1 6UY       0.638900
     21 O3          -2.6440     0.3640     1.7210 o          1 6UY      -0.520000
     22 C14         -0.2190     1.5680     0.1710 ca         1 6UY      -0.128300
     23 C15         -0.0730     2.5240     1.1980 ca         1 6UY      -0.079500
     24 C16         -0.0940     3.8960     0.8970 ca         1 6UY      -0.114000
     25 C17         -0.2620     4.3250    -0.4300 ca         1 6UY      -0.095000
     26 C18         -0.4100     3.3790    -1.4580 ca         1 6UY      -0.114000
     27 C19         -0.3880     2.0050    -1.1590 ca         1 6UY      -0.079500
     28 H1           3.3220    -2.1730    -1.1420 ha         1 6UY       0.130500
     29 H2           5.7240    -2.5990    -1.5030 ha         1 6UY       0.133500
     30 H3           6.7360     0.8030     0.9400 ha         1 6UY       0.133500
     31 H4           4.3200     1.2620     1.3170 ha         1 6UY       0.130500
     32 H5           2.1500     0.6590     1.0440 hn         1 6UY       0.153000
     33 H6          -4.7360     0.4740     2.1550 hn         1 6UY       0.517500
     34 H7          -6.4000     0.0640     1.8860 hn         1 6UY       0.517500
     35 H8          -0.0940    -0.0670     1.5820 h1         1 6UY       0.068700
     36 H9          -4.6480    -3.0140    -2.3880 h4         1 6UY       0.039100
     37 H10         -6.9470    -2.4610    -1.4780 h4         1 6UY       0.028100
     38 H11          0.0550     2.2050     2.2310 ha         1 6UY       0.123500
     39 H12          0.0180     4.6290     1.6940 ha         1 6UY       0.116000
     40 H13         -0.2790     5.3880    -0.6610 ha         1 6UY       0.114000
     41 H14         -0.5410     3.7090    -2.4860 ha         1 6UY       0.116000
     42 H15         -0.5050     1.2810    -1.9630 ha         1 6UY       0.123500
@<TRIPOS>BOND
     1     1     8 1   
     2     1    12 1   
     3     1    13 2   
     4     2     3 ar  
     5     2     7 ar  
     6     2     8 1   
     7     3     4 ar  
     8     3    28 1   
     9     4     5 ar  
    10     4    29 1   
    11     5     6 ar  
    12     5    14 1   
    13     6     7 ar  
    14     6    30 1   
    15     7    31 1   
    16     8    32 1   
    17     9    17 ar  
    18     9    18 ar  
    19    10    19 ar  
    20    10    20 ar  
    21    11    20 1   
    22    11    33 1   
    23    11    34 1   
    24    12    15 1   
    25    12    22 1   
    26    12    35 1   
    27    15    16 1   
    28    16    17 1   
    29    16    21 2   
    30    17    20 ar  
    31    18    19 ar  
    32    18    36 1   
    33    19    37 1   
    34    22    23 ar  
    35    22    27 ar  
    36    23    24 ar  
    37    23    38 1   
    38    24    25 ar  
    39    24    39 1   
    40    25    26 ar  
    41    25    40 1   
    42    26    27 ar  
    43    26    41 1   
    44    27    42 1   
@<TRIPOS>SUBSTRUCTURE
     1 6UY         1 TEMP              0 ****  ****    0 ROOT
