@<TRIPOS>MOLECULE
6V0
   71    75     1     0     0
SMALL
bcc


@<TRIPOS>ATOM
      1 PA           0.5910     1.5020    -0.6610 p5         1 6V0       1.457800
      2 O1A         -0.3620     2.6000    -1.0120 o          1 6V0      -0.849500
      3 O2A          1.5890     1.0210    -1.6720 o          1 6V0      -0.849500
      4 O5B          1.3720     1.8810     0.7400 os         1 6V0      -0.536200
      5 C5B          2.3740     2.8680     0.6730 c3         1 6V0       0.189400
      6 C4B          3.3920     2.6100     1.7690 c5         1 6V0       0.135100
      7 O4B          3.8940     1.2730     1.7000 os         1 6V0      -0.360600
      8 C3B          4.6090     3.5130     1.6330 c5         1 6V0       0.074100
      9 O3B          5.2030     3.6680     2.8950 oh         1 6V0      -0.592800
     10 C2B          5.4960     2.6670     0.7130 c5         1 6V0       0.045100
     11 O2B          6.8620     2.9420     0.8000 oh         1 6V0      -0.583800
     12 C1B          5.2120     1.2580     1.2380 c5         1 6V0       0.272800
     13 N9A          5.3590     0.2200     0.2450 na         1 6V0      -0.267000
     14 C8A          4.4830    -0.1180    -0.7550 cc         1 6V0       0.472700
     15 N7A          4.9230    -1.0850    -1.5080 nd         1 6V0      -0.555100
     16 C5A          6.1490    -1.4030    -0.9860 ca         1 6V0      -0.206200
     17 C6A          7.1220    -2.3550    -1.3390 ca         1 6V0       0.760200
     18 N6A          6.9790    -3.1800    -2.3790 nv         1 6V0      -0.968500
     19 N1A          8.2360    -2.4170    -0.6020 nb         1 6V0      -0.856000
     20 C2A          8.3770    -1.5860     0.4290 ca         1 6V0       0.666900
     21 N3A          7.5410    -0.6550     0.8540 nb         1 6V0      -0.737000
     22 C4A          6.4390    -0.6030     0.1090 ca         1 6V0       0.428800
     23 O3          -0.2190     0.2450     0.0080 os         1 6V0      -0.682800
     24 PN          -0.7250    -1.0650    -0.8450 p5         1 6V0       1.448800
     25 O1N         -1.1710    -0.6650    -2.2150 o          1 6V0      -0.844000
     26 O2N          0.2340    -2.1960    -0.6550 o          1 6V0      -0.844000
     27 O5D         -2.0420    -1.3090     0.1170 os         1 6V0      -0.531200
     28 C5D         -2.9340    -2.3240    -0.2800 c3         1 6V0       0.194400
     29 C4D         -3.6770    -2.8290     0.9400 c5         1 6V0       0.134100
     30 O4D         -4.3510    -1.7540     1.5960 os         1 6V0      -0.377600
     31 C3D         -4.7540    -3.8470     0.5800 c5         1 6V0       0.075100
     32 O3D         -4.9270    -4.7260     1.6620 oh         1 6V0      -0.590800
     33 C2D         -5.9750    -2.9420     0.4070 c5         1 6V0       0.050100
     34 O2D         -7.2080    -3.5730     0.5960 oh         1 6V0      -0.596800
     35 C1D         -5.7510    -1.9120     1.5130 c5         1 6V0       0.432300
     36 N1N         -6.4040    -0.6490     1.3080 nh         1 6V0      -0.661400
     37 C2N         -6.1290     0.0920     0.2160 c2         1 6V0       0.215000
     38 C3N         -6.7690     1.2580    -0.0650 ce         1 6V0      -0.341200
     39 C7N         -6.3690     1.9960    -1.2730 c          1 6V0       0.698300
     40 O7N         -5.5000     1.5820    -2.0400 o          1 6V0      -0.585100
     41 N7N         -7.0140     3.1580    -1.5080 nt         1 6V0      -0.688000
     42 C4N         -7.8860     1.6160     0.7980 ce         1 6V0      -0.046000
     43 C5N         -8.0690     0.9870     1.9600 c2         1 6V0      -0.269200
     44 C6N         -7.0670    -0.0180     2.4470 c6         1 6V0       0.280000
     45 H51A         2.8670     2.8720    -0.3070 h1         1 6V0       0.011700
     46 H52A         1.9550     3.8690     0.8240 h1         1 6V0       0.011700
     47 H4B          2.9140     2.7390     2.7440 h1         1 6V0       0.092700
     48 H3B          4.3530     4.4800     1.1810 h1         1 6V0       0.047700
     49 HO3A         6.1220     3.9280     2.7600 ho         1 6V0       0.402000
     50 H2B          5.1370     2.7560    -0.3190 h1         1 6V0       0.073700
     51 HO2A         7.0720     3.6620     0.1970 ho         1 6V0       0.398000
     52 H1B          5.9180     1.0110     2.0390 h2         1 6V0       0.092700
     53 H8A          3.5200     0.3640    -0.8830 h5         1 6V0       0.158800
     54 H62A         6.1160    -3.2170    -2.8920 hn         1 6V0       0.441300
     55 H61A         7.6670    -3.8900    -2.5570 hn         1 6V0       0.441300
     56 H2A          9.3010    -1.6900     0.9880 h5         1 6V0       0.019100
     57 H52N        -3.6360    -1.9450    -1.0330 h1         1 6V0       0.014200
     58 H51N        -2.4140    -3.1790    -0.7300 h1         1 6V0       0.014200
     59 H4D         -2.9540    -3.2690     1.6350 h1         1 6V0       0.099700
     60 H3D         -4.5120    -4.3880    -0.3440 h1         1 6V0       0.057700
     61 HO3N        -5.8190    -5.0900     1.6080 ho         1 6V0       0.398000
     62 H2D         -5.9210    -2.4590    -0.5770 h1         1 6V0       0.070700
     63 HO2N        -7.4480    -4.0320    -0.2150 ho         1 6V0       0.402000
     64 H1D         -6.1460    -2.3110     2.4550 h2         1 6V0       0.062700
     65 H2N         -5.3830    -0.2920    -0.4690 h4         1 6V0       0.195000
     66 H72N        -7.6290     3.5850    -0.8400 hn         1 6V0       0.295000
     67 H71N        -6.7190     3.7320    -2.2800 hn         1 6V0       0.295000
     68 H42N        -8.6200     2.3430     0.4710 ha         1 6V0       0.103000
     69 H5N         -8.9240     1.1970     2.5880 ha         1 6V0       0.113000
     70 H382        -7.5610    -0.7920     3.0330 h1         1 6V0       0.037200
     71 H6N         -6.3270     0.4550     3.1100 h1         1 6V0       0.037200
@<TRIPOS>BOND
     1     1     2 1   
     2     1     3 1   
     3     1     4 1   
     4     1    23 1   
     5     4     5 1   
     6     5     6 1   
     7     5    45 1   
     8     5    46 1   
     9     6     7 1   
    10     6     8 1   
    11     6    47 1   
    12     7    12 1   
    13     8     9 1   
    14     8    10 1   
    15     8    48 1   
    16     9    49 1   
    17    10    11 1   
    18    10    12 1   
    19    10    50 1   
    20    11    51 1   
    21    12    13 1   
    22    12    52 1   
    23    13    14 1   
    24    13    22 1   
    25    14    15 2   
    26    14    53 1   
    27    15    16 1   
    28    16    17 ar  
    29    16    22 ar  
    30    17    18 1   
    31    17    19 ar  
    32    18    54 1   
    33    18    55 1   
    34    19    20 ar  
    35    20    21 ar  
    36    20    56 1   
    37    21    22 ar  
    38    23    24 1   
    39    24    25 1   
    40    24    26 1   
    41    24    27 1   
    42    27    28 1   
    43    28    29 1   
    44    28    57 1   
    45    28    58 1   
    46    29    30 1   
    47    29    31 1   
    48    29    59 1   
    49    30    35 1   
    50    31    32 1   
    51    31    33 1   
    52    31    60 1   
    53    32    61 1   
    54    33    34 1   
    55    33    35 1   
    56    33    62 1   
    57    34    63 1   
    58    35    36 1   
    59    35    64 1   
    60    36    37 1   
    61    36    44 1   
    62    37    38 2   
    63    37    65 1   
    64    38    39 1   
    65    38    42 1   
    66    39    40 2   
    67    39    41 1   
    68    41    66 1   
    69    41    67 1   
    70    42    43 2   
    71    42    68 1   
    72    43    44 1   
    73    43    69 1   
    74    44    70 1   
    75    44    71 1   
@<TRIPOS>SUBSTRUCTURE
     1 6V0         1 TEMP              0 ****  ****    0 ROOT
