@<TRIPOS>MOLECULE
6V0
   71    75     1     0     0
SMALL
No Charge or Current Charge


@<TRIPOS>ATOM
      1 PA           1.1550    -2.0790    -0.4310 p5         1 6V0       1.457800
      2 O1A          1.7680    -0.9740    -1.2260 o          1 6V0      -0.849500
      3 O2A          1.9330    -3.3510    -0.5050 o          1 6V0      -0.849500
      4 O5B          0.9830    -1.6580     1.1170 os         1 6V0      -0.559400
      5 C5B          0.5090    -0.3440     1.4570 c3         1 6V0       0.212600
      6 C4B          1.6630     0.5640     2.0000 c5         1 6V0       0.158300
      7 O4B          2.9760     0.1180     1.5450 os         1 6V0      -0.407000
      8 C3B          1.5360     2.0700     1.5710 c5         1 6V0       0.097300
      9 O3B          2.0360     2.9800     2.5610 oh         1 6V0      -0.715000
     10 C2B          2.4550     2.0760     0.3180 c5         1 6V0       0.068300
     11 O2B          2.8260     3.4150    -0.0740 oh         1 6V0      -0.706000
     12 C1B          3.6330     1.2190     0.8880 c5         1 6V0       0.325300
     13 N9A          4.6410     0.7090    -0.0410 na         1 6V0      -0.296300
     14 C8A          4.4730     0.5270    -1.4200 cc         1 6V0       0.472700
     15 N7A          5.6190     0.1060    -2.0000 nd         1 6V0      -0.555100
     16 C5A          6.5120     0.0240    -0.9270 ca         1 6V0      -0.075600
     17 C6A          7.8690    -0.3660    -0.9150 ca         1 6V0       0.431900
     18 N6A          8.5410    -0.7450    -2.0350 nv         1 6V0      -1.078900
     19 N1A          8.5740    -0.3910     0.2270 nb         1 6V0      -0.330000
     20 C2A          7.9070    -0.0170     1.3470 ca         1 6V0       0.140900
     21 N3A          6.6120     0.3740     1.4270 nb         1 6V0      -0.211000
     22 C4A          5.9310     0.3830     0.2630 ca         1 6V0       0.100500
     23 O3          -0.3830    -2.2500    -0.7140 os         1 6V0      -0.682800
     24 PN          -0.7370    -3.1430    -1.9590 p5         1 6V0       1.448800
     25 O1N          0.0930    -2.8690    -3.1690 o          1 6V0      -0.844000
     26 O2N         -0.8110    -4.5980    -1.6320 o          1 6V0      -0.844000
     27 O5D         -2.2230    -2.5580    -2.2080 os         1 6V0      -0.554400
     28 C5D         -3.3790    -3.0320    -1.4870 c3         1 6V0       0.217600
     29 C4D         -3.2650    -2.8140     0.0540 c5         1 6V0       0.157300
     30 O4D         -3.1300    -1.3900     0.3380 os         1 6V0      -0.424000
     31 C3D         -4.5430    -3.2980     0.8420 c5         1 6V0       0.098300
     32 O3D         -4.2310    -3.9030     2.1040 oh         1 6V0      -0.713000
     33 C2D         -5.2830    -1.9540     1.0850 c5         1 6V0       0.073300
     34 O2D         -6.2570    -2.0550     2.1510 oh         1 6V0      -0.719000
     35 C1D         -4.0320    -1.0670     1.4000 c5         1 6V0       0.455500
     36 N1N         -4.4570     0.3580     1.3440 nh         1 6V0      -0.661400
     37 C2N         -4.7240     0.8980     0.0770 c2         1 6V0       0.165000
     38 C3N         -5.3920     2.0670    -0.0650 ce         1 6V0      -0.341200
     39 C7N         -5.6190     2.6140    -1.4360 c          1 6V0       0.631300
     40 O7N         -5.5330     1.9420    -2.4480 o          1 6V0      -0.585100
     41 N7N         -5.8320     3.9410    -1.5190 nt         1 6V0      -0.621000
     42 C4N         -5.8260     2.7930     1.1440 ce         1 6V0      -0.096000
     43 C5N         -5.3890     2.4030     2.3590 c2         1 6V0      -0.319200
     44 C6N         -4.4280     1.2390     2.5290 c6         1 6V0       0.280000
     45 H51A         0.0530     0.1400     0.5830 h1         1 6V0       0.011700
     46 H52A        -0.2740    -0.4130     2.2230 h1         1 6V0       0.011700
     47 H4B          1.6410     0.4830     3.0950 h1         1 6V0       0.092700
     48 H3B          0.5000     2.3290     1.3090 h1         1 6V0       0.047700
     49 HO3A         2.4610     3.7050     2.0390 ho         1 6V0       0.501000
     50 H2B          1.9650     1.5520    -0.5140 h1         1 6V0       0.073700
     51 HO2A         2.1260     3.7550    -0.6820 ho         1 6V0       0.497000
     52 H1B          4.1830     1.8060     1.6350 h2         1 6V0       0.092700
     53 H8A          3.5350     0.7210    -1.9300 h5         1 6V0       0.158800
     54 H62A         7.9790    -0.9470    -2.8590 hn         1 6V0       0.496500
     55 H61A         9.3980    -1.2800    -1.9240 hn         1 6V0       0.496500
     56 H2A          8.4700    -0.0310     2.2780 h5         1 6V0       0.019100
     57 H52N        -4.2750    -2.5110    -1.8470 h1         1 6V0       0.014200
     58 H51N        -3.5300    -4.1020    -1.6810 h1         1 6V0       0.014200
     59 H4D         -2.3800    -3.3440     0.4300 h1         1 6V0       0.099700
     60 H3D         -5.1550    -3.9820     0.2370 h1         1 6V0       0.057700
     61 HO3N        -4.9860    -3.6320     2.6840 ho         1 6V0       0.497000
     62 H2D         -5.7680    -1.6200     0.1570 h1         1 6V0       0.070700
     63 HO2N        -6.6030    -1.1410     2.2960 ho         1 6V0       0.501000
     64 H1D         -3.5870    -1.3300     2.3690 h2         1 6V0       0.062700
     65 H2N         -4.3740     0.3310    -0.7930 h4         1 6V0       0.245000
     66 H72N        -5.8420     4.5000    -0.6800 hn         1 6V0       0.295000
     67 H71N        -5.9550     4.3660    -2.4260 hn         1 6V0       0.295000
     68 H42N        -6.5080     3.6400     1.0410 ha         1 6V0       0.153000
     69 H5N         -5.6980     2.9190     3.2680 ha         1 6V0       0.163000
     70 H382        -4.6730     0.6700     3.4380 h1         1 6V0       0.037200
     71 H6N         -3.4130     1.6410     2.6560 h1         1 6V0       0.037200
@<TRIPOS>BOND
     1     1     2 1   
     2     1     3 1   
     3     1     4 1   
     4     1    23 1   
     5     4     5 1   
     6     5     6 1   
     7     5    45 1   
     8     5    46 1   
     9     6     7 1   
    10     6     8 1   
    11     6    47 1   
    12     7    12 1   
    13     8     9 1   
    14     8    10 1   
    15     8    48 1   
    16     9    49 1   
    17    10    11 1   
    18    10    12 1   
    19    10    50 1   
    20    11    51 1   
    21    12    13 1   
    22    12    52 1   
    23    13    14 1   
    24    13    22 1   
    25    14    15 2   
    26    14    53 1   
    27    15    16 1   
    28    16    17 ar  
    29    16    22 ar  
    30    17    18 1   
    31    17    19 ar  
    32    18    54 1   
    33    18    55 1   
    34    19    20 ar  
    35    20    21 ar  
    36    20    56 1   
    37    21    22 ar  
    38    23    24 1   
    39    24    25 1   
    40    24    26 1   
    41    24    27 1   
    42    27    28 1   
    43    28    29 1   
    44    28    57 1   
    45    28    58 1   
    46    29    30 1   
    47    29    31 1   
    48    29    59 1   
    49    30    35 1   
    50    31    32 1   
    51    31    33 1   
    52    31    60 1   
    53    32    61 1   
    54    33    34 1   
    55    33    35 1   
    56    33    62 1   
    57    34    63 1   
    58    35    36 1   
    59    35    64 1   
    60    36    37 1   
    61    36    44 1   
    62    37    38 2   
    63    37    65 1   
    64    38    39 1   
    65    38    42 1   
    66    39    40 2   
    67    39    41 1   
    68    41    66 1   
    69    41    67 1   
    70    42    43 2   
    71    42    68 1   
    72    43    44 1   
    73    43    69 1   
    74    44    70 1   
    75    44    71 1   
@<TRIPOS>SUBSTRUCTURE
     1 6V0         1 TEMP              0 ****  ****    0 ROOT
