@<TRIPOS>MOLECULE
6V1
   29    29     1     0     0
SMALL
bcc


@<TRIPOS>ATOM
      1 N           18.6650   221.3050    -9.9090 n8         1 6V1      -0.887800
      2 CA          19.4980   220.5120   -10.7950 c3         1 6V1       0.014500
      3 C           20.8280   219.9720   -10.1930 c          1 6V1       0.909600
      4 O           21.0840   220.2780    -9.0150 o          1 6V1      -0.827300
      5 CB          19.8070   221.3190   -12.0510 c3         1 6V1       0.062700
      6 SG          18.2540   222.0140   -12.7000 ss         1 6V1      -0.303200
      7 C1          18.7670   222.5080   -14.3690 c5         1 6V1      -0.089600
      8 C2          18.7390   221.3530   -15.3490 c          1 6V1       0.712500
      9 N3          17.9790   221.7230   -16.4350 n          1 6V1      -0.523400
     10 C4          17.4220   222.9770   -16.3110 c          1 6V1       0.712500
     11 C5          17.8150   223.5390   -14.9700 c5         1 6V1      -0.150400
     12 C6          17.7330   220.8510   -17.5710 c3         1 6V1       0.107000
     13 O7          19.2880   220.2850   -15.2350 o          1 6V1      -0.559500
     14 O8          16.7290   223.5000   -17.1480 o          1 6V1      -0.608500
     15 C3          16.5050   219.9790   -17.3700 c3         1 6V1      -0.110100
     16 O1          21.5180   219.2710   -10.9610 o          1 6V1      -0.827300
     17 H1          18.3690   220.7300    -9.1310 hn         1 6V1       0.331800
     18 H2          19.2380   222.0300    -9.4900 hn         1 6V1       0.331800
     19 H4          18.9060   219.6440   -11.1060 h1         1 6V1       0.055700
     20 H5          20.2640   220.6840   -12.8050 h1         1 6V1       0.067700
     21 H6          20.4940   222.1410   -11.8310 h1         1 6V1       0.067700
     22 H7          19.7890   222.8960   -14.3250 h1         1 6V1       0.095700
     23 H8          18.2700   224.5220   -15.0860 hc         1 6V1       0.087700
     24 H9          16.9060   223.6740   -14.3770 hc         1 6V1       0.087700
     25 H10         18.6210   220.2400   -17.7200 h1         1 6V1       0.057200
     26 H11         17.6220   221.4790   -18.4530 h1         1 6V1       0.057200
     27 H12         16.3570   219.3450   -18.2450 hc         1 6V1       0.042700
     28 H13         16.6170   219.3310   -16.5020 hc         1 6V1       0.042700
     29 H14         15.6070   220.5820   -17.2380 hc         1 6V1       0.042700
@<TRIPOS>BOND
     1     1     2 1   
     2     1    17 1   
     3     1    18 1   
     4     2     3 1   
     5     2     5 1   
     6     2    19 1   
     7     3     4 1   
     8     3    16 1   
     9     5     6 1   
    10     5    20 1   
    11     5    21 1   
    12     6     7 1   
    13     7     8 1   
    14     7    11 1   
    15     7    22 1   
    16     8     9 1   
    17     8    13 2   
    18     9    10 1   
    19     9    12 1   
    20    10    11 1   
    21    10    14 2   
    22    11    23 1   
    23    11    24 1   
    24    12    15 1   
    25    12    25 1   
    26    12    26 1   
    27    15    27 1   
    28    15    28 1   
    29    15    29 1   
@<TRIPOS>SUBSTRUCTURE
     1 6V1         1 TEMP              0 ****  ****    0 ROOT
