@<TRIPOS>MOLECULE
6V2
   68    70     1     0     0
SMALL
No Charge or Current Charge


@<TRIPOS>ATOM
      1 O3          -2.4750     1.9810     0.4100 o          1 6V2      -0.539500
      2 S           -3.5200     1.2080     1.0830 s6         1 6V2       1.200100
      3 O2          -4.1480     1.7030     2.3080 o          1 6V2      -0.539500
      4 C20         -4.8000     0.7190    -0.0850 c3         1 6V2      -0.250100
      5 C21         -5.6620     1.8700    -0.5910 ca         1 6V2      -0.080300
      6 C26         -5.2660     2.6050    -1.7250 ca         1 6V2      -0.085500
      7 C25         -6.0620     3.6660    -2.1930 ca         1 6V2      -0.110500
      8 C24         -7.2560     3.9960    -1.5310 ca         1 6V2      -0.100000
      9 C23         -7.6550     3.2630    -0.4000 ca         1 6V2      -0.110500
     10 C22         -6.8600     2.2020     0.0680 ca         1 6V2      -0.085500
     11 N4          -2.8390    -0.2490     1.4960 n7         1 6V2      -0.921300
     12 C12         -1.9720    -0.9610     0.5030 c3         1 6V2       0.171500
     13 C13         -1.9880    -2.4780     0.8120 c3         1 6V2      -0.034100
     14 C14         -3.3360    -3.1200     0.4970 ca         1 6V2      -0.081300
     15 C19         -3.6170    -3.5730    -0.8080 ca         1 6V2      -0.109000
     16 C18         -4.8630    -4.1530    -1.1050 ca         1 6V2      -0.110500
     17 C17         -5.8360    -4.2820    -0.1000 ca         1 6V2      -0.107000
     18 C16         -5.5620    -3.8310     1.2030 ca         1 6V2      -0.110500
     19 C15         -4.3160    -3.2520     1.4990 ca         1 6V2      -0.109000
     20 C11         -0.4950    -0.4150     0.4710 c          1 6V2       0.587100
     21 O1           0.0030     0.0710     1.4840 o          1 6V2      -0.601100
     22 N            0.2560    -0.4820    -0.7320 n          1 6V2      -0.375800
     23 C           -0.3110    -1.0120    -1.9940 c3         1 6V2       0.089300
     24 C1           1.6770    -0.0230    -0.7560 c3         1 6V2       0.011000
     25 C2           2.7040    -1.0490    -0.2310 c          1 6V2       0.588100
     26 O            2.4060    -2.1800     0.1340 o          1 6V2      -0.601100
     27 N1           4.0060    -0.6030    -0.2110 ns         1 6V2      -0.500900
     28 C3           5.1420    -1.4020     0.2410 c3         1 6V2       0.141300
     29 C4           6.4410    -0.6180     0.1300 ca         1 6V2      -0.096300
     30 C9           6.8920     0.1660     1.2060 ca         1 6V2      -0.111000
     31 C8           8.0910     0.8930     1.1040 ca         1 6V2      -0.077000
     32 C7           8.8570     0.8650    -0.0850 ca         1 6V2      -0.141900
     33 C10         10.1520     1.6210    -0.1690 ce         1 6V2       0.659800
     34 N3          10.7730     2.0570     0.8480 n2         1 6V2      -0.825100
     35 N2          10.6260     1.9410    -1.3930 nv         1 6V2      -1.077200
     36 C6           8.4040     0.0560    -1.1550 ca         1 6V2      -0.077000
     37 C5           7.2050    -0.6700    -1.0490 ca         1 6V2      -0.111000
     38 H201        -4.2900     0.2290    -0.9190 h1         1 6V2       0.104700
     39 H202        -5.4100    -0.0230     0.4400 h1         1 6V2       0.104700
     40 H4          -2.2460     0.0520     2.2710 hn         1 6V2       0.520000
     41 H26         -4.3430     2.3570    -2.2440 ha         1 6V2       0.119000
     42 H22         -7.1760     1.6410     0.9450 ha         1 6V2       0.119000
     43 H25         -5.7520     4.2320    -3.0690 ha         1 6V2       0.114500
     44 H24         -7.8720     4.8170    -1.8930 ha         1 6V2       0.113000
     45 H23         -8.5800     3.5170     0.1140 ha         1 6V2       0.114500
     46 H12         -2.3890    -0.8420    -0.5050 h1         1 6V2       0.081700
     47 H131        -1.2030    -2.9760     0.2300 hc         1 6V2       0.070700
     48 H132        -1.7200    -2.6360     1.8640 hc         1 6V2       0.070700
     49 H19         -2.8710    -3.4750    -1.5940 ha         1 6V2       0.112500
     50 H15         -4.1150    -2.8970     2.5080 ha         1 6V2       0.112500
     51 H18         -5.0740    -4.5000    -2.1140 ha         1 6V2       0.115000
     52 H17         -6.8000    -4.7300    -0.3300 ha         1 6V2       0.116000
     53 H16         -6.3160    -3.9280     1.9810 ha         1 6V2       0.115000
     54 HC1         -1.1200    -0.3570    -2.3430 h1         1 6V2       0.047033
     55 HC2          0.4600    -1.0590    -2.7730 h1         1 6V2       0.047033
     56 HC3         -0.7030    -2.0250    -1.8390 h1         1 6V2       0.047033
     57 H11C         1.9670     0.2380    -1.7810 h1         1 6V2       0.074200
     58 H12C         1.7800     0.8880    -0.1540 h1         1 6V2       0.074200
     59 H1           4.1800     0.3430    -0.5300 hn         1 6V2       0.315500
     60 H31C         4.9770    -1.7040     1.2850 h1         1 6V2       0.070700
     61 H32C         5.2050    -2.3150    -0.3670 h1         1 6V2       0.070700
     62 H9           6.3140     0.2130     2.1270 ha         1 6V2       0.115500
     63 H5           6.8720    -1.2800    -1.8860 ha         1 6V2       0.115500
     64 H8           8.4180     1.4890     1.9530 ha         1 6V2       0.128000
     65 H6           8.9810    -0.0260    -2.0730 ha         1 6V2       0.128000
     66 H3          11.7090     2.3490     0.5460 hn         1 6V2       0.371400
     67 H21N         9.9540     1.8480    -2.1460 hn         1 6V2       0.461000
     68 H22N        11.2130     2.7660    -1.4440 hn         1 6V2       0.461000
@<TRIPOS>BOND
     1     1     2 2   
     2     2     3 2   
     3     2     4 1   
     4     2    11 1   
     5     4     5 1   
     6     4    38 1   
     7     4    39 1   
     8     5     6 ar  
     9     5    10 ar  
    10     6     7 ar  
    11     6    41 1   
    12     7     8 ar  
    13     7    43 1   
    14     8     9 ar  
    15     8    44 1   
    16     9    10 ar  
    17     9    45 1   
    18    10    42 1   
    19    11    12 1   
    20    11    40 1   
    21    12    13 1   
    22    12    20 1   
    23    12    46 1   
    24    13    14 1   
    25    13    47 1   
    26    13    48 1   
    27    14    15 ar  
    28    14    19 ar  
    29    15    16 ar  
    30    15    49 1   
    31    16    17 ar  
    32    16    51 1   
    33    17    18 ar  
    34    17    52 1   
    35    18    19 ar  
    36    18    53 1   
    37    19    50 1   
    38    20    21 2   
    39    20    22 1   
    40    22    23 1   
    41    22    24 1   
    42    23    54 1   
    43    23    55 1   
    44    23    56 1   
    45    24    25 1   
    46    24    57 1   
    47    24    58 1   
    48    25    26 2   
    49    25    27 1   
    50    27    28 1   
    51    27    59 1   
    52    28    29 1   
    53    28    60 1   
    54    28    61 1   
    55    29    30 ar  
    56    29    37 ar  
    57    30    31 ar  
    58    30    62 1   
    59    31    32 ar  
    60    31    64 1   
    61    32    33 1   
    62    32    36 ar  
    63    33    34 2   
    64    33    35 1   
    65    34    66 1   
    66    35    67 1   
    67    35    68 1   
    68    36    37 ar  
    69    36    65 1   
    70    37    63 1   
@<TRIPOS>SUBSTRUCTURE
     1 6V2         1 TEMP              0 ****  ****    0 ROOT
