@<TRIPOS>MOLECULE
6V2
   68    70     1     0     0
SMALL
bcc


@<TRIPOS>ATOM
      1 O3          -3.3840     1.9370    -0.6300 o          1 6V2      -0.610300
      2 S           -3.7250     1.2190     0.5920 s6         1 6V2       1.230900
      3 O2          -4.0410     1.9720     1.7960 o          1 6V2      -0.610300
      4 C20         -5.1110     0.1370     0.2170 c3         1 6V2      -0.139300
      5 C21         -6.2790     0.9440    -0.2520 ca         1 6V2      -0.080300
      6 C26         -6.4460     1.2160    -1.6070 ca         1 6V2      -0.103500
      7 C25         -7.5220     1.9750    -2.0430 ca         1 6V2      -0.128500
      8 C24         -8.4360     2.4780    -1.1260 ca         1 6V2      -0.118000
      9 C23         -8.2720     2.2140     0.2280 ca         1 6V2      -0.128500
     10 C22         -7.1960     1.4540     0.6630 ca         1 6V2      -0.103500
     11 N4          -2.5200     0.1730     0.9770 n7         1 6V2      -0.866100
     12 C12         -1.5320    -0.2490     0.0100 c3         1 6V2       0.171500
     13 C13         -1.3250    -1.7740     0.0980 c3         1 6V2      -0.034100
     14 C14         -2.6110    -2.4900    -0.1930 ca         1 6V2      -0.081300
     15 C19         -3.0600    -2.6210    -1.5060 ca         1 6V2      -0.127000
     16 C18         -4.2900    -3.2010    -1.7820 ca         1 6V2      -0.128500
     17 C17         -5.0890    -3.6640    -0.7430 ca         1 6V2      -0.125000
     18 C16         -4.6460    -3.5480     0.5670 ca         1 6V2      -0.128500
     19 C15         -3.4160    -2.9630     0.8380 ca         1 6V2      -0.127000
     20 C11         -0.2070     0.4590     0.2850 c          1 6V2       0.654100
     21 O1           0.0780     0.7700     1.4330 o          1 6V2      -0.601100
     22 N            0.6360     0.6790    -0.7420 n          1 6V2      -0.442800
     23 C            0.4230     0.2070    -2.0960 c3         1 6V2       0.089300
     24 C1           1.9600     1.1270    -0.3870 c3         1 6V2       0.011000
     25 C2           2.7570     0.0200     0.2950 c          1 6V2       0.655100
     26 O            2.4570    -1.1550     0.1680 o          1 6V2      -0.601100
     27 N1           3.8160     0.4630     0.9910 ns         1 6V2      -0.567900
     28 C3           4.7950    -0.3890     1.6200 c3         1 6V2       0.141300
     29 C4           6.1590    -0.2920     0.9820 ca         1 6V2      -0.096300
     30 C9           7.3030    -0.3280     1.7730 ca         1 6V2      -0.129000
     31 C8           8.5650    -0.2660     1.2050 ca         1 6V2      -0.095000
     32 C7           8.7160    -0.1490    -0.1740 ca         1 6V2      -0.141900
     33 C10         10.0810    -0.0730    -0.7620 ce         1 6V2       0.659800
     34 N3          11.0550    -0.5960    -0.1220 n2         1 6V2      -0.825100
     35 N2          10.1530     0.5230    -1.9890 nv         1 6V2      -0.966800
     36 C6           7.5700    -0.1170    -0.9680 ca         1 6V2      -0.095000
     37 C5           6.3090    -0.1890    -0.3970 ca         1 6V2      -0.129000
     38 H201        -4.7640    -0.5720    -0.5370 h1         1 6V2       0.104700
     39 H202        -5.3210    -0.4160     1.1320 h1         1 6V2       0.104700
     40 H4          -2.2030     0.2480     1.9370 hn         1 6V2       0.464800
     41 H26         -5.7380     0.8230    -2.3270 ha         1 6V2       0.137000
     42 H22         -7.0750     1.2440     1.7190 ha         1 6V2       0.137000
     43 H25         -7.6470     2.1750    -3.0990 ha         1 6V2       0.132500
     44 H24         -9.2780     3.0670    -1.4660 ha         1 6V2       0.131000
     45 H23         -8.9840     2.6000     0.9460 ha         1 6V2       0.132500
     46 H12         -1.9130    -0.0150    -0.9830 h1         1 6V2       0.081700
     47 H131        -0.5480    -2.0720    -0.6090 hc         1 6V2       0.070700
     48 H132        -0.9570    -2.0260     1.0950 hc         1 6V2       0.070700
     49 H19         -2.4440    -2.2610    -2.3240 ha         1 6V2       0.130500
     50 H15         -3.0820    -2.8650     1.8640 ha         1 6V2       0.130500
     51 H18         -4.6250    -3.2930    -2.8070 ha         1 6V2       0.133000
     52 H17         -6.0500    -4.1160    -0.9570 ha         1 6V2       0.134000
     53 H16         -5.2610    -3.9090     1.3820 ha         1 6V2       0.133000
     54 HC1         -0.6040     0.3620    -2.4180 h1         1 6V2       0.047033
     55 HC2          1.0500     0.7840    -2.7720 h1         1 6V2       0.047033
     56 HC3          0.6770    -0.8470    -2.2130 h1         1 6V2       0.047033
     57 H11C         2.4860     1.4160    -1.2980 h1         1 6V2       0.074200
     58 H12C         1.9150     2.0160     0.2430 h1         1 6V2       0.074200
     59 H1           3.9650     1.4580     1.0570 hn         1 6V2       0.315500
     60 H31C         4.8700    -0.1380     2.6800 h1         1 6V2       0.070700
     61 H32C         4.4320    -1.4160     1.5680 h1         1 6V2       0.070700
     62 H9           7.2080    -0.3960     2.8510 ha         1 6V2       0.133500
     63 H5           5.4400    -0.1640    -1.0420 ha         1 6V2       0.133500
     64 H8           9.4420    -0.2910     1.8370 ha         1 6V2       0.146000
     65 H6           7.6500    -0.0530    -2.0460 ha         1 6V2       0.146000
     66 H3          11.9350    -0.4490    -0.6090 hn         1 6V2       0.371400
     67 H21N         9.4720     1.2280    -2.2190 hn         1 6V2       0.405800
     68 H22N        11.0710     0.7130    -2.3590 hn         1 6V2       0.405800
@<TRIPOS>BOND
     1     1     2 2   
     2     2     3 2   
     3     2     4 1   
     4     2    11 1   
     5     4     5 1   
     6     4    38 1   
     7     4    39 1   
     8     5     6 ar  
     9     5    10 ar  
    10     6     7 ar  
    11     6    41 1   
    12     7     8 ar  
    13     7    43 1   
    14     8     9 ar  
    15     8    44 1   
    16     9    10 ar  
    17     9    45 1   
    18    10    42 1   
    19    11    12 1   
    20    11    40 1   
    21    12    13 1   
    22    12    20 1   
    23    12    46 1   
    24    13    14 1   
    25    13    47 1   
    26    13    48 1   
    27    14    15 ar  
    28    14    19 ar  
    29    15    16 ar  
    30    15    49 1   
    31    16    17 ar  
    32    16    51 1   
    33    17    18 ar  
    34    17    52 1   
    35    18    19 ar  
    36    18    53 1   
    37    19    50 1   
    38    20    21 2   
    39    20    22 1   
    40    22    23 1   
    41    22    24 1   
    42    23    54 1   
    43    23    55 1   
    44    23    56 1   
    45    24    25 1   
    46    24    57 1   
    47    24    58 1   
    48    25    26 2   
    49    25    27 1   
    50    27    28 1   
    51    27    59 1   
    52    28    29 1   
    53    28    60 1   
    54    28    61 1   
    55    29    30 ar  
    56    29    37 ar  
    57    30    31 ar  
    58    30    62 1   
    59    31    32 ar  
    60    31    64 1   
    61    32    33 1   
    62    32    36 ar  
    63    33    34 2   
    64    33    35 1   
    65    34    66 1   
    66    35    67 1   
    67    35    68 1   
    68    36    37 ar  
    69    36    65 1   
    70    37    63 1   
@<TRIPOS>SUBSTRUCTURE
     1 6V2         1 TEMP              0 ****  ****    0 ROOT
