@<TRIPOS>MOLECULE
6V3
   65    70     1     0     0
SMALL
No Charge or Current Charge


@<TRIPOS>ATOM
      1 C1           6.2810     1.3520    -0.1310 ca         1 6V3       0.284000
      2 C2           6.4550     2.7460    -0.2320 ca         1 6V3      -0.168000
      3 C3           5.3490     3.6080    -0.2710 ca         1 6V3      -0.083000
      4 C4           4.0510     3.0830    -0.2080 ca         1 6V3      -0.120000
      5 C5           4.9640     0.8200    -0.0700 ca         1 6V3      -0.064000
      6 C6           3.8530     1.6940    -0.1070 ca         1 6V3       0.003000
      7 C7           2.5410     1.1840    -0.0470 ca         1 6V3      -0.138000
      8 C8           2.3140    -0.2050     0.0480 ca         1 6V3      -0.005000
      9 C9           3.4200    -1.0710     0.0760 ca         1 6V3      -0.170000
     10 C10          4.7310    -0.5700     0.0170 ca         1 6V3      -0.054000
     11 C12          8.5330     0.6880    -1.0650 c6         1 6V3       0.149300
     12 C13          9.4730    -0.5640    -1.1330 c6         1 6V3       0.162800
     13 C15          8.8480    -1.2150     1.1330 c6         1 6V3       0.162800
     14 N11          7.4230     0.5160    -0.0750 nh         1 6V3      -0.780400
     15 N14         10.0000    -0.9760     0.2070 n3         1 6V3      -0.716600
     16 C16          7.8900     0.0180     1.2560 c6         1 6V3       0.149300
     17 C17         11.0090    -0.0380     0.7550 c3         1 6V3       0.152100
     18 N18          1.0200    -0.7940     0.1120 ns         1 6V3      -0.159000
     19 C19         -0.2580    -0.2510     0.1210 c          1 6V3       0.668100
     20 N20         -1.2270    -1.2420     0.1910 ns         1 6V3      -0.165000
     21 O21         -0.4990     0.9500     0.0700 o          1 6V3      -0.599100
     22 C22         -2.6480    -1.1940     0.2360 ca         1 6V3      -0.006000
     23 C23         -3.3910     0.0080     0.2850 ca         1 6V3      -0.139000
     24 C24         -4.7960    -0.0250     0.3290 ca         1 6V3      -0.086500
     25 C25         -5.4760    -1.2580     0.3170 ca         1 6V3       0.064100
     26 C26         -4.7450    -2.4550     0.2850 ca         1 6V3      -0.086500
     27 C27         -3.3390    -2.4210     0.2410 ca         1 6V3      -0.139000
     28 O28         -6.8500    -1.3150     0.3750 os         1 6V3      -0.237200
     29 C29         -7.6630    -0.4490    -0.3220 ca         1 6V3       0.220100
     30 C30         -7.3320     0.0400    -1.5970 ca         1 6V3      -0.283000
     31 C31         -8.2320     0.9080    -2.2470 ca         1 6V3       0.388900
     32 N32         -9.4150     1.2950    -1.7050 nb         1 6V3      -0.704000
     33 C33         -8.8900    -0.0420     0.2020 ca         1 6V3      -0.168800
     34 C34         -9.7170     0.8070    -0.4890 ca         1 6V3       0.387500
     35 N35        -10.8350     1.0160     0.2970 na         1 6V3      -0.324400
     36 C36        -10.7630     0.3080     1.5190 cc         1 6V3      -0.173100
     37 C37         -9.5460    -0.3480     1.4500 cd         1 6V3      -0.205200
     38 H1           7.4560     3.1660    -0.2690 ha         1 6V3       0.113000
     39 H2           5.4990     4.6830    -0.3470 ha         1 6V3       0.112000
     40 H3           3.1990     3.7590    -0.2370 ha         1 6V3       0.120000
     41 H4           1.7140     1.8850    -0.0770 ha         1 6V3       0.149000
     42 H5           3.2670    -2.1460     0.1440 ha         1 6V3       0.106000
     43 H6           5.5610    -1.2720     0.0330 ha         1 6V3       0.128000
     44 H8           8.1170     0.8630    -2.0680 h1         1 6V3       0.042200
     45 H9           8.9010    -1.3930    -1.5740 h1         1 6V3       0.058450
     46 H10         10.3000    -0.3530    -1.8270 h1         1 6V3       0.058450
     47 H11          8.2560    -2.0690     0.7710 h1         1 6V3       0.058450
     48 H12          9.2080    -1.4900     2.1360 h1         1 6V3       0.058450
     49 H14          7.0280    -0.2740     1.8740 h1         1 6V3       0.042200
     50 H15          8.4100     0.8250     1.7920 h1         1 6V3       0.042200
     51 H16         10.5830     0.9600     0.9250 h1         1 6V3       0.030367
     52 H17         11.4010    -0.4090     1.7110 h1         1 6V3       0.030367
     53 H18         11.8540     0.0670     0.0620 h1         1 6V3       0.030367
     54 H19          1.0390    -1.8040     0.1610 hn         1 6V3       0.147000
     55 H20         -0.8540    -2.1820     0.2170 hn         1 6V3       0.147000
     56 H21         -2.9020     0.9770     0.2970 ha         1 6V3       0.131000
     57 H22         -5.3540     0.9070     0.3790 ha         1 6V3       0.132500
     58 H23         -5.2670    -3.4080     0.2900 ha         1 6V3       0.132500
     59 H24         -2.7860    -3.3580     0.2110 ha         1 6V3       0.131000
     60 H25         -6.4060    -0.2440    -2.0850 ha         1 6V3       0.134000
     61 H26         -8.0000     1.3030    -3.2350 h4         1 6V3       0.017100
     62 H27        -11.6030     1.6110     0.0080 hn         1 6V3       0.360000
     63 H28        -11.5350     0.3300     2.2860 h4         1 6V3       0.214000
     64 H29         -9.1470    -0.9980     2.2270 ha         1 6V3       0.213000
     65 H7           9.1350     1.5700    -0.8050 h1         1 6V3       0.042200
@<TRIPOS>BOND
     1     1     2 ar  
     2     1     5 ar  
     3     1    14 1   
     4     2     3 ar  
     5     2    38 1   
     6     3     4 ar  
     7     3    39 1   
     8     4     6 ar  
     9     4    40 1   
    10     5     6 ar  
    11     5    10 ar  
    12     6     7 ar  
    13     7     8 ar  
    14     7    41 1   
    15     8     9 ar  
    16     8    18 1   
    17     9    10 ar  
    18     9    42 1   
    19    10    43 1   
    20    11    12 1   
    21    11    14 1   
    22    11    44 1   
    23    11    65 1   
    24    12    15 1   
    25    12    45 1   
    26    12    46 1   
    27    13    15 1   
    28    13    16 1   
    29    13    47 1   
    30    13    48 1   
    31    14    16 1   
    32    15    17 1   
    33    16    49 1   
    34    16    50 1   
    35    17    51 1   
    36    17    52 1   
    37    17    53 1   
    38    18    19 1   
    39    18    54 1   
    40    19    20 1   
    41    19    21 2   
    42    20    22 1   
    43    20    55 1   
    44    22    23 ar  
    45    22    27 ar  
    46    23    24 ar  
    47    23    56 1   
    48    24    25 ar  
    49    24    57 1   
    50    25    26 ar  
    51    25    28 1   
    52    26    27 ar  
    53    26    58 1   
    54    27    59 1   
    55    28    29 1   
    56    29    30 ar  
    57    29    33 ar  
    58    30    31 ar  
    59    30    60 1   
    60    31    32 ar  
    61    31    61 1   
    62    32    34 ar  
    63    33    34 ar  
    64    33    37 1   
    65    34    35 1   
    66    35    36 1   
    67    35    62 1   
    68    36    37 2   
    69    36    63 1   
    70    37    64 1   
@<TRIPOS>SUBSTRUCTURE
     1 6V3         1 TEMP              0 ****  ****    0 ROOT
