@<TRIPOS>MOLECULE
6V3
   65    70     1     0     0
SMALL
bcc


@<TRIPOS>ATOM
      1 C1           6.2120     1.2950    -0.4060 ca         1 6V3       0.145600
      2 C2           6.3400     2.6460    -0.6390 ca         1 6V3      -0.186000
      3 C3           5.2090     3.4860    -0.6680 ca         1 6V3      -0.101000
      4 C4           3.9550     2.9880    -0.4490 ca         1 6V3      -0.138000
      5 C5           4.9030     0.7460    -0.2400 ca         1 6V3      -0.064000
      6 C6           3.7720     1.6000    -0.2330 ca         1 6V3       0.003000
      7 C7           2.4730     1.0710    -0.0440 ca         1 6V3      -0.156000
      8 C8           2.2850    -0.2830     0.1060 ca         1 6V3       0.087600
      9 C9           3.4130    -1.1410     0.0440 ca         1 6V3      -0.188000
     10 C10          4.6710    -0.6440    -0.1230 ca         1 6V3      -0.072000
     11 C12          8.5140     0.8220    -1.0540 c6         1 6V3       0.149300
     12 C13          9.4620    -0.3690    -1.1370 c6         1 6V3       0.162800
     13 C15          8.5940    -1.2370     0.8980 c6         1 6V3       0.162800
     14 N11          7.3090     0.4230    -0.3440 nh         1 6V3      -0.642000
     15 N14          9.8040    -0.9390     0.1540 n3         1 6V3      -0.716600
     16 C16          7.6340    -0.0590     0.9980 c6         1 6V3       0.149300
     17 C17         10.7630    -0.1530     0.9040 c3         1 6V3       0.152100
     18 N18          1.0610    -0.9200     0.2920 ns         1 6V3      -0.485100
     19 C19         -0.1820    -0.3580     0.4080 c          1 6V3       0.802100
     20 N20         -1.1680    -1.3030     0.5200 ns         1 6V3      -0.491100
     21 O21         -0.3900     0.8410     0.4160 o          1 6V3      -0.599100
     22 C22         -2.5400    -1.0700     0.6330 ca         1 6V3       0.086600
     23 C23         -3.0890     0.0810     1.2020 ca         1 6V3      -0.157000
     24 C24         -4.4660     0.2150     1.3040 ca         1 6V3      -0.104500
     25 C25         -5.3010    -0.7950     0.8590 ca         1 6V3       0.064100
     26 C26         -4.7710    -1.9490     0.3060 ca         1 6V3      -0.104500
     27 C27         -3.3980    -2.0800     0.1930 ca         1 6V3      -0.157000
     28 O28         -6.6650    -0.6750     1.0130 os         1 6V3      -0.237200
     29 C29         -7.3910    -0.1280     0.0160 ca         1 6V3       0.220100
     30 C30         -6.8740     0.3650    -1.1720 ca         1 6V3      -0.366300
     31 C31         -7.7500     0.9050    -2.1220 ca         1 6V3       0.454200
     32 N32         -9.0620     0.9900    -1.9880 nb         1 6V3      -0.704000
     33 C33         -8.7720    -0.0590     0.2060 ca         1 6V3      -0.234100
     34 C34         -9.5270     0.5100    -0.8400 ca         1 6V3       0.452800
     35 N35        -10.8310     0.4760    -0.4580 na         1 6V3      -0.274100
     36 C36        -10.9260    -0.0920     0.7840 cc         1 6V3      -0.123100
     37 C37         -9.6850    -0.4370     1.2350 cd         1 6V3      -0.155200
     38 H1           7.3160     3.0870    -0.7860 ha         1 6V3       0.131000
     39 H2           5.3470     4.5450    -0.8450 ha         1 6V3       0.130000
     40 H3           3.0920     3.6420    -0.4530 ha         1 6V3       0.138000
     41 H4           1.6430     1.7580    -0.0330 ha         1 6V3       0.167000
     42 H5           3.2700    -2.2130     0.1200 ha         1 6V3       0.124000
     43 H6           5.5030    -1.3320    -0.1930 ha         1 6V3       0.146000
     44 H8           8.2470     1.1430    -2.0630 h1         1 6V3       0.042200
     45 H9           8.9880    -1.1480    -1.7430 h1         1 6V3       0.058450
     46 H10         10.3780    -0.0710    -1.6530 h1         1 6V3       0.058450
     47 H11          8.0750    -2.0630     0.4000 h1         1 6V3       0.058450
     48 H12          8.8610    -1.5810     1.9000 h1         1 6V3       0.058450
     49 H14          6.7260    -0.3770     1.5120 h1         1 6V3       0.042200
     50 H15          8.0720     0.7510     1.6020 h1         1 6V3       0.042200
     51 H16         10.4230     0.8480     1.2030 h1         1 6V3       0.030367
     52 H17         11.0360    -0.6880     1.8150 h1         1 6V3       0.030367
     53 H18         11.6710    -0.0240     0.3120 h1         1 6V3       0.030367
     54 H19          1.1210    -1.9250     0.3610 hn         1 6V3       0.313500
     55 H20         -0.9170    -2.2620     0.3310 hn         1 6V3       0.313500
     56 H21         -2.4610     0.8730     1.5770 ha         1 6V3       0.149000
     57 H22         -4.8840     1.1100     1.7460 ha         1 6V3       0.150500
     58 H23         -5.4200    -2.7440    -0.0370 ha         1 6V3       0.150500
     59 H24         -2.9890    -2.9820    -0.2440 ha         1 6V3       0.149000
     60 H25         -5.8150     0.3480    -1.3880 ha         1 6V3       0.152000
     61 H26         -7.3340     1.2890    -3.0470 h4         1 6V3       0.017100
     62 H27        -11.6060     0.8050    -1.0100 hn         1 6V3       0.309700
     63 H28        -11.8870    -0.2090     1.2580 h4         1 6V3       0.164000
     64 H29         -9.4590    -0.9030     2.1790 ha         1 6V3       0.163000
     65 H7           9.0210     1.6710    -0.5700 h1         1 6V3       0.042200
@<TRIPOS>BOND
     1     1     2 ar  
     2     1     5 ar  
     3     1    14 1   
     4     2     3 ar  
     5     2    38 1   
     6     3     4 ar  
     7     3    39 1   
     8     4     6 ar  
     9     4    40 1   
    10     5     6 ar  
    11     5    10 ar  
    12     6     7 ar  
    13     7     8 ar  
    14     7    41 1   
    15     8     9 ar  
    16     8    18 1   
    17     9    10 ar  
    18     9    42 1   
    19    10    43 1   
    20    11    12 1   
    21    11    14 1   
    22    11    44 1   
    23    11    65 1   
    24    12    15 1   
    25    12    45 1   
    26    12    46 1   
    27    13    15 1   
    28    13    16 1   
    29    13    47 1   
    30    13    48 1   
    31    14    16 1   
    32    15    17 1   
    33    16    49 1   
    34    16    50 1   
    35    17    51 1   
    36    17    52 1   
    37    17    53 1   
    38    18    19 1   
    39    18    54 1   
    40    19    20 1   
    41    19    21 2   
    42    20    22 1   
    43    20    55 1   
    44    22    23 ar  
    45    22    27 ar  
    46    23    24 ar  
    47    23    56 1   
    48    24    25 ar  
    49    24    57 1   
    50    25    26 ar  
    51    25    28 1   
    52    26    27 ar  
    53    26    58 1   
    54    27    59 1   
    55    28    29 1   
    56    29    30 ar  
    57    29    33 ar  
    58    30    31 ar  
    59    30    60 1   
    60    31    32 ar  
    61    31    61 1   
    62    32    34 ar  
    63    33    34 ar  
    64    33    37 1   
    65    34    35 1   
    66    35    36 1   
    67    35    62 1   
    68    36    37 2   
    69    36    63 1   
    70    37    64 1   
@<TRIPOS>SUBSTRUCTURE
     1 6V3         1 TEMP              0 ****  ****    0 ROOT
