@<TRIPOS>MOLECULE
6V4
   77    81     1     0     0
SMALL
bcc


@<TRIPOS>ATOM
      1 C1          -5.9410    -0.8300     0.6340 ca         1 6V4      -0.141600
      2 C2          -5.0290     0.2260     0.6230 ca         1 6V4      -0.170000
      3 C3          -3.6880    -0.0100     0.3800 ca         1 6V4       0.094100
      4 C4          -3.2370    -1.3260     0.1320 ca         1 6V4       0.066600
      5 C5          -4.1540    -2.3700     0.1490 ca         1 6V4      -0.141000
      6 C6          -5.4950    -2.1230     0.4160 ca         1 6V4      -0.091000
      7 C7          -7.3730    -0.5930     0.9940 c          1 6V4       0.686700
      8 C12         -7.6500     0.8970    -0.9780 c6         1 6V4       0.096500
      9 C13         -8.6930     0.5130    -2.0160 c6         1 6V4       0.139800
     10 C15        -10.3860     0.4020    -0.3420 c6         1 6V4       0.139800
     11 O8          -7.8830    -1.2460     1.8960 o          1 6V4      -0.595100
     12 N9          -8.0300     0.3800     0.3260 n          1 6V4      -0.475800
     13 O10         -2.7280     0.9310     0.3380 os         1 6V4      -0.350900
     14 N11         -1.8750    -1.4600    -0.1120 ns         1 6V4      -0.450100
     15 N14        -10.0110     0.9640    -1.6250 n3         1 6V4      -0.716600
     16 C16         -9.3690     0.7810     0.7200 c6         1 6V4       0.096500
     17 C17        -10.9980     0.6810    -2.6430 c3         1 6V4       0.153100
     18 C18         -1.1450    -2.5710    -0.3570 c          1 6V4       0.609600
     19 C19          0.2960    -2.2630    -0.5400 cc         1 6V4       0.279800
     20 O20         -1.5720    -3.7100    -0.4230 o          1 6V4      -0.585100
     21 S21          2.7750    -2.4190    -0.9050 ss         1 6V4      -0.108300
     22 C22          1.2620    -3.1930    -0.7700 cd         1 6V4      -0.147400
     23 C23          2.0110    -0.8850    -0.6310 cd         1 6V4       0.485900
     24 N24          0.7310    -0.9760    -0.4670 nc         1 6V4      -0.652000
     25 C25          2.7480     0.3790    -0.6030 ca         1 6V4      -0.106500
     26 C26         -2.9950     2.2940     0.6910 c3         1 6V4       0.165100
     27 C27         -3.1150     2.4470     2.1980 c3         1 6V4      -0.109600
     28 C28         -1.8470     3.1030     0.1240 c3         1 6V4      -0.109600
     29 C29          2.0390     1.5710    -0.7290 ca         1 6V4      -0.115000
     30 C30          2.7280     2.7710    -0.6820 ca         1 6V4      -0.104000
     31 C31          4.1010     2.7900    -0.5100 ca         1 6V4      -0.178000
     32 C32          4.8210     1.5980    -0.3880 ca         1 6V4       0.091600
     33 C33          4.1310     0.3870    -0.4310 ca         1 6V4      -0.142000
     34 N34          6.1950     1.7160    -0.1990 ns         1 6V4      -0.490100
     35 C35          7.1430     0.7270    -0.2110 c          1 6V4       0.804100
     36 N36          8.4010     1.2120     0.0210 ns         1 6V4      -0.490100
     37 O37          6.8940    -0.4480    -0.4100 o          1 6V4      -0.604100
     38 C38          9.5820     0.4660     0.1090 ca         1 6V4       0.077600
     39 C39          9.7970    -0.7260    -0.5830 ca         1 6V4      -0.159000
     40 C40         11.0150    -1.3810    -0.4610 ca         1 6V4      -0.103500
     41 C41         12.0340    -0.8650     0.3270 ca         1 6V4      -0.148000
     42 C42         11.8230     0.3300     1.0030 ca         1 6V4      -0.103500
     43 C43         10.6080     0.9870     0.9000 ca         1 6V4      -0.159000
     44 H1          -5.3820     1.2300     0.8180 ha         1 6V4       0.141000
     45 H2          -3.8310    -3.3800    -0.0390 ha         1 6V4       0.170000
     46 H3          -6.1900    -2.9510     0.4370 ha         1 6V4       0.148000
     47 H5          -7.5610     1.9860    -0.9250 h1         1 6V4       0.062450
     48 H6          -8.4210     0.9780    -2.9670 h1         1 6V4       0.040950
     49 H7          -8.6570    -0.5800    -2.1690 h1         1 6V4       0.040950
     50 H8         -11.3620     0.7960    -0.0500 h1         1 6V4       0.040950
     51 H9         -10.4790    -0.6980    -0.3830 h1         1 6V4       0.040950
     52 H10         -1.3410    -0.5980    -0.0940 hn         1 6V4       0.363500
     53 H12         -9.3740     1.8670     0.8550 h1         1 6V4       0.062450
     54 H13         -9.6270     0.3250     1.6710 h1         1 6V4       0.062450
     55 H14        -11.1240    -0.3950    -2.8380 h1         1 6V4       0.032033
     56 H15        -11.9670     1.0820    -2.3440 h1         1 6V4       0.032033
     57 H16        -10.7120     1.1590    -3.5810 h1         1 6V4       0.032033
     58 H17          1.1600    -4.2620    -0.8640 h4         1 6V4       0.199000
     59 H18         -3.9220     2.6150     0.2050 h1         1 6V4       0.041700
     60 H19         -2.1790     2.1770     2.6890 hc         1 6V4       0.048367
     61 H20         -3.3390     3.4850     2.4420 hc         1 6V4       0.048367
     62 H21         -3.9120     1.8330     2.6190 hc         1 6V4       0.048367
     63 H22         -1.7880     3.0020    -0.9600 hc         1 6V4       0.048367
     64 H23         -1.9910     4.1580     0.3550 hc         1 6V4       0.048367
     65 H24         -0.8950     2.7920     0.5580 hc         1 6V4       0.048367
     66 H25          0.9670     1.5560    -0.8700 ha         1 6V4       0.155000
     67 H26          2.1930     3.7060    -0.7830 ha         1 6V4       0.135000
     68 H27          4.6230     3.7390    -0.4720 ha         1 6V4       0.128000
     69 H28          4.6700    -0.5400    -0.3090 ha         1 6V4       0.171000
     70 H29          6.5180     2.6650    -0.0850 hn         1 6V4       0.314500
     71 H30          8.4850     2.1720     0.3180 hn         1 6V4       0.312500
     72 H31          9.0350    -1.1450    -1.2200 ha         1 6V4       0.142000
     73 H32         11.1660    -2.3060    -1.0020 ha         1 6V4       0.133000
     74 H33         12.9810    -1.3820     0.4080 ha         1 6V4       0.135000
     75 H34         12.6040     0.7530     1.6210 ha         1 6V4       0.133000
     76 H35         10.4520     1.9130     1.4400 ha         1 6V4       0.142000
     77 H4          -6.6860     0.5000    -1.2820 h1         1 6V4       0.062450
@<TRIPOS>BOND
     1     1     2 ar  
     2     1     6 ar  
     3     1     7 1   
     4     2     3 ar  
     5     2    44 1   
     6     3     4 ar  
     7     3    13 1   
     8     4     5 ar  
     9     4    14 1   
    10     5     6 ar  
    11     5    45 1   
    12     6    46 1   
    13     7    11 2   
    14     7    12 1   
    15     8     9 1   
    16     8    12 1   
    17     8    47 1   
    18     8    77 1   
    19     9    15 1   
    20     9    48 1   
    21     9    49 1   
    22    10    15 1   
    23    10    16 1   
    24    10    50 1   
    25    10    51 1   
    26    12    16 1   
    27    13    26 1   
    28    14    18 1   
    29    14    52 1   
    30    15    17 1   
    31    16    53 1   
    32    16    54 1   
    33    17    55 1   
    34    17    56 1   
    35    17    57 1   
    36    18    19 1   
    37    18    20 2   
    38    19    22 2   
    39    19    24 1   
    40    21    22 1   
    41    21    23 1   
    42    22    58 1   
    43    23    24 2   
    44    23    25 1   
    45    25    29 ar  
    46    25    33 ar  
    47    26    27 1   
    48    26    28 1   
    49    26    59 1   
    50    27    60 1   
    51    27    61 1   
    52    27    62 1   
    53    28    63 1   
    54    28    64 1   
    55    28    65 1   
    56    29    30 ar  
    57    29    66 1   
    58    30    31 ar  
    59    30    67 1   
    60    31    32 ar  
    61    31    68 1   
    62    32    33 ar  
    63    32    34 1   
    64    33    69 1   
    65    34    35 1   
    66    34    70 1   
    67    35    36 1   
    68    35    37 2   
    69    36    38 1   
    70    36    71 1   
    71    38    39 ar  
    72    38    43 ar  
    73    39    40 ar  
    74    39    72 1   
    75    40    41 ar  
    76    40    73 1   
    77    41    42 ar  
    78    41    74 1   
    79    42    43 ar  
    80    42    75 1   
    81    43    76 1   
@<TRIPOS>SUBSTRUCTURE
     1 6V4         1 TEMP              0 ****  ****    0 ROOT
