@<TRIPOS>MOLECULE
6V4
   77    81     1     0     0
SMALL
No Charge or Current Charge


@<TRIPOS>ATOM
      1 C1          -6.1820    -1.0320     0.4720 ca         1 6V4      -0.141600
      2 C2          -5.2610     0.0410     0.5150 ca         1 6V4      -0.152000
      3 C3          -3.8710    -0.1950     0.4230 ca         1 6V4       0.094100
      4 C4          -3.3870    -1.5130     0.2870 ca         1 6V4      -0.026000
      5 C5          -4.3020    -2.5870     0.2710 ca         1 6V4      -0.123000
      6 C6          -5.6820    -2.3460     0.3710 ca         1 6V4      -0.073000
      7 C7          -7.6790    -0.8120     0.5920 c          1 6V4       0.619700
      8 C12         -7.7520     1.0660    -1.1170 c6         1 6V4       0.096500
      9 C13         -8.7600     0.8890    -2.2880 c6         1 6V4       0.139800
     10 C15        -10.6030     0.6180    -0.6960 c6         1 6V4       0.139800
     11 O8          -8.3840    -1.6440     1.1510 o          1 6V4      -0.595100
     12 N9          -8.2260     0.4100     0.1390 n          1 6V4      -0.408800
     13 O10         -2.9410     0.8330     0.4450 os         1 6V4      -0.374100
     14 N11         -1.9780    -1.6850     0.1860 ns         1 6V4      -0.124000
     15 N14        -10.1360     1.3290    -1.9210 n3         1 6V4      -0.716600
     16 C16         -9.6180     0.8130     0.4890 c6         1 6V4       0.096500
     17 C17        -11.0900     1.2130    -3.0450 c3         1 6V4       0.153100
     18 C18         -1.1620    -2.8000     0.0550 c          1 6V4       0.542600
     19 C19          0.2910    -2.4210    -0.0120 cc         1 6V4       0.214500
     20 O20         -1.5770    -3.9570     0.0010 o          1 6V4      -0.585100
     21 S21          2.8650    -2.6630    -0.1940 ss         1 6V4       0.036600
     22 C22          1.2670    -3.3840    -0.1410 cd         1 6V4      -0.209000
     23 C23          2.0810    -1.0890    -0.0350 cd         1 6V4       0.485900
     24 N24          0.7540    -1.1180     0.0480 nc         1 6V4      -0.652000
     25 C25          2.8400     0.1880    -0.0020 ca         1 6V4      -0.106500
     26 C26         -3.2510     2.1940     0.8010 c3         1 6V4       0.188300
     27 C27         -3.4990     2.2600     2.3240 c3         1 6V4      -0.109600
     28 C28         -2.0390     3.0430     0.3740 c3         1 6V4      -0.109600
     29 C29          2.1560     1.4230     0.0840 ca         1 6V4      -0.097000
     30 C30          2.8640     2.6330     0.1230 ca         1 6V4      -0.086000
     31 C31          4.2660     2.6300     0.0750 ca         1 6V4      -0.160000
     32 C32          4.9750     1.4210    -0.0120 ca         1 6V4      -0.001000
     33 C33          4.2570     0.2030    -0.0470 ca         1 6V4      -0.124000
     34 N34          6.3950     1.5020    -0.0540 ns         1 6V4      -0.164000
     35 C35          7.3870     0.5420    -0.1980 c          1 6V4       0.670100
     36 N36          8.6520     1.1140    -0.1660 ns         1 6V4      -0.164000
     37 O37          7.1730    -0.6560    -0.3400 o          1 6V4      -0.604100
     38 C38          9.9600     0.5620    -0.2690 ca         1 6V4      -0.015000
     39 C39         10.2190    -0.8180    -0.4270 ca         1 6V4      -0.141000
     40 C40         11.5410    -1.2880    -0.5210 ca         1 6V4      -0.085500
     41 C41         12.6160    -0.3870    -0.4600 ca         1 6V4      -0.130000
     42 C42         12.3690     0.9860    -0.3030 ca         1 6V4      -0.085500
     43 C43         11.0480     1.4550    -0.2080 ca         1 6V4      -0.141000
     44 H1          -5.6390     1.0510     0.6350 ha         1 6V4       0.123000
     45 H2          -3.9670    -3.6150     0.1810 ha         1 6V4       0.152000
     46 H3          -6.3700    -3.1900     0.3570 ha         1 6V4       0.130000
     47 H5          -7.6070     2.1390    -0.9250 h1         1 6V4       0.062450
     48 H6          -8.3950     1.4600    -3.1550 h1         1 6V4       0.040950
     49 H7          -8.7690    -0.1710    -2.5830 h1         1 6V4       0.040950
     50 H8         -11.5940     0.9870    -0.3950 h1         1 6V4       0.040950
     51 H9         -10.7050    -0.4590    -0.8970 h1         1 6V4       0.040950
     52 H10         -1.4630    -0.8130     0.2160 hn         1 6V4       0.197000
     53 H12         -9.6140     1.8740     0.7750 h1         1 6V4       0.062450
     54 H13         -9.9800     0.2510     1.3610 h1         1 6V4       0.062450
     55 H14        -11.2050     0.1660    -3.3560 h1         1 6V4       0.032033
     56 H15        -12.0780     1.5970    -2.7560 h1         1 6V4       0.032033
     57 H16        -10.7420     1.7930    -3.9100 h1         1 6V4       0.032033
     58 H17          1.1390    -4.4580    -0.2070 h4         1 6V4       0.181000
     59 H18         -4.1310     2.5590     0.2560 h1         1 6V4       0.041700
     60 H19         -2.6320     1.8760     2.8760 hc         1 6V4       0.048367
     61 H20         -3.6720     3.2970     2.6370 hc         1 6V4       0.048367
     62 H21         -4.3770     1.6730     2.6120 hc         1 6V4       0.048367
     63 H22         -1.8740     2.9590    -0.7060 hc         1 6V4       0.048367
     64 H23         -2.2080     4.0990     0.6120 hc         1 6V4       0.048367
     65 H24         -1.1300     2.7140     0.8920 hc         1 6V4       0.048367
     66 H25          1.0690     1.4530     0.1220 ha         1 6V4       0.137000
     67 H26          2.3240     3.5760     0.1890 ha         1 6V4       0.117000
     68 H27          4.8010     3.5760     0.1050 ha         1 6V4       0.110000
     69 H28          4.7930    -0.7360    -0.1040 ha         1 6V4       0.153000
     70 H29          6.7470     2.4460     0.0420 hn         1 6V4       0.148000
     71 H30          8.6470     2.1180    -0.0450 hn         1 6V4       0.146000
     72 H31          9.4140    -1.5450    -0.4780 ha         1 6V4       0.124000
     73 H32         11.7320    -2.3520    -0.6430 ha         1 6V4       0.115000
     74 H33         13.6380    -0.7520    -0.5330 ha         1 6V4       0.117000
     75 H34         13.2010     1.6860    -0.2550 ha         1 6V4       0.115000
     76 H35         10.8700     2.5220    -0.0870 ha         1 6V4       0.124000
     77 H4          -6.7870     0.6570    -1.4400 h1         1 6V4       0.062450
@<TRIPOS>BOND
     1     1     2 ar  
     2     1     6 ar  
     3     1     7 1   
     4     2     3 ar  
     5     2    44 1   
     6     3     4 ar  
     7     3    13 1   
     8     4     5 ar  
     9     4    14 1   
    10     5     6 ar  
    11     5    45 1   
    12     6    46 1   
    13     7    11 2   
    14     7    12 1   
    15     8     9 1   
    16     8    12 1   
    17     8    47 1   
    18     8    77 1   
    19     9    15 1   
    20     9    48 1   
    21     9    49 1   
    22    10    15 1   
    23    10    16 1   
    24    10    50 1   
    25    10    51 1   
    26    12    16 1   
    27    13    26 1   
    28    14    18 1   
    29    14    52 1   
    30    15    17 1   
    31    16    53 1   
    32    16    54 1   
    33    17    55 1   
    34    17    56 1   
    35    17    57 1   
    36    18    19 1   
    37    18    20 2   
    38    19    22 2   
    39    19    24 1   
    40    21    22 1   
    41    21    23 1   
    42    22    58 1   
    43    23    24 2   
    44    23    25 1   
    45    25    29 ar  
    46    25    33 ar  
    47    26    27 1   
    48    26    28 1   
    49    26    59 1   
    50    27    60 1   
    51    27    61 1   
    52    27    62 1   
    53    28    63 1   
    54    28    64 1   
    55    28    65 1   
    56    29    30 ar  
    57    29    66 1   
    58    30    31 ar  
    59    30    67 1   
    60    31    32 ar  
    61    31    68 1   
    62    32    33 ar  
    63    32    34 1   
    64    33    69 1   
    65    34    35 1   
    66    34    70 1   
    67    35    36 1   
    68    35    37 2   
    69    36    38 1   
    70    36    71 1   
    71    38    39 ar  
    72    38    43 ar  
    73    39    40 ar  
    74    39    72 1   
    75    40    41 ar  
    76    40    73 1   
    77    41    42 ar  
    78    41    74 1   
    79    42    43 ar  
    80    42    75 1   
    81    43    76 1   
@<TRIPOS>SUBSTRUCTURE
     1 6V4         1 TEMP              0 ****  ****    0 ROOT
