@<TRIPOS>MOLECULE
6V5
   75    79     1     0     0
SMALL
No Charge or Current Charge


@<TRIPOS>ATOM
      1 C1          -5.8500    -0.9040     0.4540 ca         1 6V5      -0.140600
      2 C2          -4.8070     0.0230     0.6860 ca         1 6V5      -0.149000
      3 C3          -3.4590    -0.3370     0.4670 ca         1 6V5       0.092100
      4 C4          -3.1370    -1.6440     0.0430 ca         1 6V5      -0.028000
      5 C5          -4.1740    -2.5790    -0.1600 ca         1 6V5      -0.122000
      6 C6          -5.5140    -2.2110     0.0490 ca         1 6V5      -0.071000
      7 C7          -7.3060    -0.5490     0.6930 c          1 6V5       0.619700
      8 C12         -2.5810     1.9650     0.8730 c3         1 6V5       0.185300
      9 C13         -1.2250     2.5020     1.3680 c3         1 6V5      -0.108600
     10 C14         -3.0010     2.6010    -0.4710 c3         1 6V5      -0.108600
     11 C15         -7.1890     1.6550    -0.5640 c6         1 6V5       0.096500
     12 O8          -8.0930    -1.3980     1.0940 o          1 6V5      -0.594100
     13 N9          -7.7110     0.7970     0.5410 n          1 6V5      -0.409800
     14 N10         -1.7600    -1.9480    -0.1490 ns         1 6V5      -0.122000
     15 O11         -2.4120     0.5470     0.6780 os         1 6V5      -0.374100
     16 C16         -8.2370     1.8630    -1.6940 c6         1 6V5       0.139800
     17 N17         -9.5390     2.3660    -1.1710 n3         1 6V5      -0.716600
     18 C18        -10.0630     1.4590    -0.1110 c6         1 6V5       0.139800
     19 C19         -9.0350     1.2690     1.0380 c6         1 6V5       0.096500
     20 C20        -10.5260     2.6160    -2.2450 c3         1 6V5       0.152100
     21 C21         -1.0880    -3.0860    -0.5760 c          1 6V5       0.541600
     22 C22          0.4000    -2.8760    -0.5960 cc         1 6V5       0.216500
     23 O23         -1.6420    -4.1350    -0.9000 o          1 6V5      -0.584100
     24 N24          1.0210    -1.6940    -0.2310 nc         1 6V5      -0.650000
     25 C25          2.3400    -1.8030    -0.3490 cd         1 6V5       0.483900
     26 S26          2.9240    -3.3690    -0.9200 ss         1 6V5       0.031600
     27 C27          1.2490    -3.8850    -0.9930 cd         1 6V5      -0.206000
     28 C28          3.2470    -0.6770    -0.0170 ca         1 6V5      -0.140500
     29 C29          2.7230     0.5430     0.4650 ca         1 6V5      -0.048000
     30 C30          3.5750     1.6110     0.7770 ca         1 6V5      -0.124000
     31 C31          4.9630     1.4860     0.6150 ca         1 6V5      -0.074000
     32 C32          5.5210     0.2780     0.1330 ca         1 6V5      -0.156600
     33 C33          4.6490    -0.7930    -0.1790 ca         1 6V5      -0.045000
     34 C34          7.0180     0.0990    -0.0590 c          1 6V5       0.620700
     35 N35          7.8060     1.1970     0.2730 ns         1 6V5      -0.141000
     36 O36          7.4790    -0.9580    -0.4780 o          1 6V5      -0.576100
     37 C37          9.2100     1.4270     0.2290 ca         1 6V5      -0.025000
     38 C38         10.1460     0.4880    -0.2620 ca         1 6V5      -0.145000
     39 C39         11.5190     0.7920    -0.2740 ca         1 6V5      -0.084500
     40 C40         11.9710     2.0330     0.2010 ca         1 6V5      -0.133000
     41 C41         11.0500     2.9730     0.6880 ca         1 6V5      -0.084500
     42 C42          9.6780     2.6700     0.7000 ca         1 6V5      -0.145000
     43 H1          -5.0570     1.0120     1.0560 ha         1 6V5       0.124000
     44 H2          -3.9650    -3.5950    -0.4770 ha         1 6V5       0.153000
     45 H3          -6.2970    -2.9490    -0.1140 ha         1 6V5       0.131000
     46 H4          -3.3330     2.1760     1.6440 h1         1 6V5       0.045700
     47 H5          -0.4370     2.3130     0.6300 hc         1 6V5       0.047033
     48 H6          -1.2820     3.5820     1.5440 hc         1 6V5       0.047033
     49 H7          -0.9430     2.0180     2.3110 hc         1 6V5       0.047033
     50 H8          -2.2670     2.3740    -1.2540 hc         1 6V5       0.047033
     51 H9          -3.9790     2.2330    -0.8000 hc         1 6V5       0.047033
     52 H10         -3.0700     3.6910    -0.3720 hc         1 6V5       0.047033
     53 H11         -6.9040     2.6330    -0.1520 h1         1 6V5       0.061950
     54 H12         -6.2910     1.2160    -1.0180 h1         1 6V5       0.061950
     55 H13         -1.1420    -1.1760     0.0700 hn         1 6V5       0.195000
     56 H14         -7.8240     2.5660    -2.4320 h1         1 6V5       0.041200
     57 H15         -8.3850     0.9040    -2.2130 h1         1 6V5       0.041200
     58 H17        -10.9940     1.8630     0.3130 h1         1 6V5       0.041200
     59 H18        -10.3020     0.4730    -0.5360 h1         1 6V5       0.041200
     60 H19         -9.4440     0.5730     1.7830 h1         1 6V5       0.061950
     61 H20         -8.8930     2.2320     1.5490 h1         1 6V5       0.061950
     62 H21        -11.4510     3.0380    -1.8300 h1         1 6V5       0.032367
     63 H22        -10.1280     3.3300    -2.9780 h1         1 6V5       0.032367
     64 H23        -10.7770     1.6850    -2.7710 h1         1 6V5       0.032367
     65 H24          0.9900    -4.8850    -1.3180 h4         1 6V5       0.184000
     66 H25          1.6510     0.6710     0.6020 ha         1 6V5       0.139000
     67 H26          3.1560     2.5440     1.1480 ha         1 6V5       0.121000
     68 H27          5.5860     2.3400     0.8700 ha         1 6V5       0.118000
     69 H28          5.0750    -1.7220    -0.5510 ha         1 6V5       0.138000
     70 H29          7.2800     1.9910     0.6110 hn         1 6V5       0.153000
     71 H30          9.8350    -0.4800    -0.6400 ha         1 6V5       0.126000
     72 H31         12.2330     0.0640    -0.6530 ha         1 6V5       0.114000
     73 H32         13.0340     2.2670     0.1910 ha         1 6V5       0.116000
     74 H33         11.3980     3.9360     1.0560 ha         1 6V5       0.114000
     75 H34          8.9740     3.4080     1.0800 ha         1 6V5       0.126000
@<TRIPOS>BOND
     1     1     2 ar  
     2     1     6 ar  
     3     1     7 1   
     4     2     3 ar  
     5     2    43 1   
     6     3     4 ar  
     7     3    15 1   
     8     4     5 ar  
     9     4    14 1   
    10     5     6 ar  
    11     5    44 1   
    12     6    45 1   
    13     7    12 2   
    14     7    13 1   
    15     8     9 1   
    16     8    10 1   
    17     8    15 1   
    18     8    46 1   
    19     9    47 1   
    20     9    48 1   
    21     9    49 1   
    22    10    50 1   
    23    10    51 1   
    24    10    52 1   
    25    11    13 1   
    26    11    16 1   
    27    11    53 1   
    28    11    54 1   
    29    13    19 1   
    30    14    21 1   
    31    14    55 1   
    32    16    17 1   
    33    16    56 1   
    34    16    57 1   
    35    17    18 1   
    36    17    20 1   
    37    18    19 1   
    38    18    58 1   
    39    18    59 1   
    40    19    60 1   
    41    19    61 1   
    42    20    62 1   
    43    20    63 1   
    44    20    64 1   
    45    21    22 1   
    46    21    23 2   
    47    22    24 1   
    48    22    27 2   
    49    24    25 2   
    50    25    26 1   
    51    25    28 1   
    52    26    27 1   
    53    27    65 1   
    54    28    29 ar  
    55    28    33 ar  
    56    29    30 ar  
    57    29    66 1   
    58    30    31 ar  
    59    30    67 1   
    60    31    32 ar  
    61    31    68 1   
    62    32    33 ar  
    63    32    34 1   
    64    33    69 1   
    65    34    35 1   
    66    34    36 2   
    67    35    37 1   
    68    35    70 1   
    69    37    38 ar  
    70    37    42 ar  
    71    38    39 ar  
    72    38    71 1   
    73    39    40 ar  
    74    39    72 1   
    75    40    41 ar  
    76    40    73 1   
    77    41    42 ar  
    78    41    74 1   
    79    42    75 1   
@<TRIPOS>SUBSTRUCTURE
     1 6V5         1 TEMP              0 ****  ****    0 ROOT
