@<TRIPOS>MOLECULE
6V5
   75    79     1     0     0
SMALL
bcc


@<TRIPOS>ATOM
      1 C1          -5.7000    -0.6770     0.6940 ca         1 6V5      -0.140600
      2 C2          -4.6790     0.2580     0.8600 ca         1 6V5      -0.167000
      3 C3          -3.3640    -0.0870     0.6040 ca         1 6V5       0.092100
      4 C4          -3.0510    -1.3920     0.1660 ca         1 6V5       0.064600
      5 C5          -4.0770    -2.3190     0.0150 ca         1 6V5      -0.140000
      6 C6          -5.3910    -1.9640     0.2900 ca         1 6V5      -0.089000
      7 C7          -7.1100    -0.3310     1.0510 c          1 6V5       0.686700
      8 C12         -2.4870     2.1470     0.9220 c3         1 6V5       0.162100
      9 C13         -1.1430     2.6880     1.3630 c3         1 6V5      -0.108600
     10 C14         -2.9700     2.7870    -0.3670 c3         1 6V5      -0.108600
     11 C15         -7.1400     1.4680    -0.6690 c6         1 6V5       0.096500
     12 O8          -7.7280    -1.0520     1.8250 o          1 6V5      -0.594100
     13 N9          -7.6230     0.8060     0.5320 n          1 6V5      -0.476800
     14 N10         -1.7050    -1.6450    -0.0770 ns         1 6V5      -0.448100
     15 O11         -2.3080     0.7330     0.7570 os         1 6V5      -0.350900
     16 C16         -8.1830     1.3770    -1.7720 c6         1 6V5       0.139800
     17 N17         -9.4530     1.9190    -1.3360 n3         1 6V5      -0.716600
     18 C18         -9.9350     1.2120    -0.1670 c6         1 6V5       0.139800
     19 C19         -8.9210     1.2990     0.9600 c6         1 6V5       0.096500
     20 C20        -10.4290     1.9200    -2.4020 c3         1 6V5       0.152100
     21 C21         -1.1030    -2.7970    -0.4480 c          1 6V5       0.608600
     22 C22          0.3690    -2.6510    -0.5810 cc         1 6V5       0.281800
     23 O23         -1.6590    -3.8610    -0.6570 o          1 6V5      -0.584100
     24 N24          0.9700    -1.4580    -0.3290 nc         1 6V5      -0.650000
     25 C25          2.2540    -1.5200    -0.4850 cd         1 6V5       0.483900
     26 S26          2.8100    -3.0920    -0.9660 ss         1 6V5      -0.113300
     27 C27          1.2060    -3.6620    -0.9430 cd         1 6V5      -0.144400
     28 C28          3.1540    -0.3860    -0.2720 ca         1 6V5      -0.140500
     29 C29          2.6200     0.8440     0.1170 ca         1 6V5      -0.066000
     30 C30          3.4540     1.9260     0.3280 ca         1 6V5      -0.142000
     31 C31          4.8270     1.7980     0.1680 ca         1 6V5      -0.092000
     32 C32          5.3700     0.5750    -0.2160 ca         1 6V5      -0.156600
     33 C33          4.5270    -0.5060    -0.4500 ca         1 6V5      -0.063000
     34 C34          6.8350     0.3700    -0.4440 c          1 6V5       0.687700
     35 N35          7.6430     1.1520     0.3120 ns         1 6V5      -0.467100
     36 O36          7.2340    -0.4570    -1.2450 o          1 6V5      -0.576100
     37 C37          9.0430     1.2010     0.3290 ca         1 6V5       0.067600
     38 C38          9.8570     0.6980    -0.6860 ca         1 6V5      -0.163000
     39 C39         11.2370     0.8170    -0.5780 ca         1 6V5      -0.102500
     40 C40         11.8250     1.4290     0.5190 ca         1 6V5      -0.151000
     41 C41         11.0100     1.9340     1.5240 ca         1 6V5      -0.102500
     42 C42          9.6340     1.8210     1.4320 ca         1 6V5      -0.163000
     43 H1          -4.9260     1.2530     1.2060 ha         1 6V5       0.142000
     44 H2          -3.8580    -3.3210    -0.3170 ha         1 6V5       0.171000
     45 H3          -6.1720    -2.7030     0.1700 ha         1 6V5       0.149000
     46 H4          -3.2130     2.3230     1.7230 h1         1 6V5       0.045700
     47 H5          -0.3920     2.5600     0.5810 hc         1 6V5       0.047033
     48 H6          -1.2270     3.7530     1.5740 hc         1 6V5       0.047033
     49 H7          -0.7930     2.1930     2.2690 hc         1 6V5       0.047033
     50 H8          -2.2320     2.6610    -1.1610 hc         1 6V5       0.047033
     51 H9          -3.9170     2.3710    -0.7110 hc         1 6V5       0.047033
     52 H10         -3.1200     3.8550    -0.2110 hc         1 6V5       0.047033
     53 H11         -6.9280     2.5170    -0.4430 h1         1 6V5       0.061950
     54 H12         -6.2190     1.0090    -1.0160 h1         1 6V5       0.061950
     55 H13         -1.0810    -0.8580     0.0560 hn         1 6V5       0.361500
     56 H14         -7.8270     1.9470    -2.6340 h1         1 6V5       0.041200
     57 H15         -8.2720     0.3240    -2.0940 h1         1 6V5       0.041200
     58 H17        -10.8720     1.6650     0.1650 h1         1 6V5       0.041200
     59 H18        -10.1460     0.1500    -0.3850 h1         1 6V5       0.041200
     60 H19         -9.2630     0.7350     1.8230 h1         1 6V5       0.061950
     61 H20         -8.8050     2.3440     1.2650 h1         1 6V5       0.061950
     62 H21        -11.3520     2.3910    -2.0610 h1         1 6V5       0.032367
     63 H22        -10.0550     2.4940    -3.2510 h1         1 6V5       0.032367
     64 H23        -10.6800     0.9110    -2.7640 h1         1 6V5       0.032367
     65 H24          0.9620    -4.6830    -1.1880 h4         1 6V5       0.202000
     66 H25          1.5520     0.9470     0.2480 ha         1 6V5       0.157000
     67 H26          3.0360     2.8810     0.6170 ha         1 6V5       0.139000
     68 H27          5.4550     2.6670     0.3200 ha         1 6V5       0.136000
     69 H28          4.9650    -1.4460    -0.7640 ha         1 6V5       0.156000
     70 H29          7.1990     1.6850     1.0440 hn         1 6V5       0.319500
     71 H30          9.4360     0.2240    -1.5570 ha         1 6V5       0.144000
     72 H31         11.8560     0.4230    -1.3740 ha         1 6V5       0.132000
     73 H32         12.9010     1.5140     0.5900 ha         1 6V5       0.134000
     74 H33         11.4460     2.4170     2.3890 ha         1 6V5       0.132000
     75 H34          9.0100     2.2190     2.2250 ha         1 6V5       0.144000
@<TRIPOS>BOND
     1     1     2 ar  
     2     1     6 ar  
     3     1     7 1   
     4     2     3 ar  
     5     2    43 1   
     6     3     4 ar  
     7     3    15 1   
     8     4     5 ar  
     9     4    14 1   
    10     5     6 ar  
    11     5    44 1   
    12     6    45 1   
    13     7    12 2   
    14     7    13 1   
    15     8     9 1   
    16     8    10 1   
    17     8    15 1   
    18     8    46 1   
    19     9    47 1   
    20     9    48 1   
    21     9    49 1   
    22    10    50 1   
    23    10    51 1   
    24    10    52 1   
    25    11    13 1   
    26    11    16 1   
    27    11    53 1   
    28    11    54 1   
    29    13    19 1   
    30    14    21 1   
    31    14    55 1   
    32    16    17 1   
    33    16    56 1   
    34    16    57 1   
    35    17    18 1   
    36    17    20 1   
    37    18    19 1   
    38    18    58 1   
    39    18    59 1   
    40    19    60 1   
    41    19    61 1   
    42    20    62 1   
    43    20    63 1   
    44    20    64 1   
    45    21    22 1   
    46    21    23 2   
    47    22    24 1   
    48    22    27 2   
    49    24    25 2   
    50    25    26 1   
    51    25    28 1   
    52    26    27 1   
    53    27    65 1   
    54    28    29 ar  
    55    28    33 ar  
    56    29    30 ar  
    57    29    66 1   
    58    30    31 ar  
    59    30    67 1   
    60    31    32 ar  
    61    31    68 1   
    62    32    33 ar  
    63    32    34 1   
    64    33    69 1   
    65    34    35 1   
    66    34    36 2   
    67    35    37 1   
    68    35    70 1   
    69    37    38 ar  
    70    37    42 ar  
    71    38    39 ar  
    72    38    71 1   
    73    39    40 ar  
    74    39    72 1   
    75    40    41 ar  
    76    40    73 1   
    77    41    42 ar  
    78    41    74 1   
    79    42    75 1   
@<TRIPOS>SUBSTRUCTURE
     1 6V5         1 TEMP              0 ****  ****    0 ROOT
