@<TRIPOS>MOLECULE
6V6
  121   120     1     0     0
SMALL
No Charge or Current Charge


@<TRIPOS>ATOM
      1 C2           0.4220     3.4910     0.6240 c3         1 6V6       0.220600
      2 C3          -3.9540     2.7080    -0.1460 c3         1 6V6       0.185600
      3 O3          -1.6090     4.6600    -1.2170 o          1 6V6      -0.811000
      4 C4          -4.5640     1.7640    -1.2390 c3         1 6V6       0.148300
      5 C5          -6.1120     1.6560    -1.0700 c3         1 6V6       0.163600
      6 P1          -1.5050     3.1760    -1.1270 p5         1 6V6       1.398800
      7 C1           1.6260     2.7470     1.2890 c3         1 6V6       0.157300
      8 O1          -0.1200     2.7140    -0.4560 os         1 6V6      -0.567400
      9 O2          -1.7070     2.5120    -2.4480 o          1 6V6      -0.811000
     10 O4          -2.5210     2.5650    -0.0360 os         1 6V6      -0.624400
     11 O5          -4.2460     2.2190    -2.5740 oh         1 6V6      -0.712000
     12 O6          -6.6810     0.6790    -1.9600 oh         1 6V6      -0.643000
     13 H1          -0.3430     3.6810     1.3900 h1         1 6V6       0.034700
     14 H2           0.7620     4.4670     0.2550 h1         1 6V6       0.034700
     15 H3          -4.2270     3.7480    -0.3690 h1         1 6V6       0.032700
     16 H4          -4.4110     2.4580     0.8210 h1         1 6V6       0.032700
     17 H5          -4.1440     0.7620    -1.0790 h1         1 6V6       0.036700
     18 H6          -6.3400     1.3810    -0.0320 h1         1 6V6       0.011200
     19 H7          -6.5640     2.6400    -1.2520 h1         1 6V6       0.011200
     20 H12         -3.2410     2.2820    -2.6120 ho         1 6V6       0.515000
     21 H13         -7.6540     0.7320    -1.8560 ho         1 6V6       0.419000
     22 C6           1.2260     1.6030     2.2580 c3         1 6V6       0.175600
     23 O7           2.5200     2.2040     0.2820 os         1 6V6      -0.415100
     24 O9           0.3350     0.6820     1.6030 os         1 6V6      -0.405100
     25 C8          -0.1070    -0.4010     2.3110 c          1 6V6       0.609100
     26 C9          -1.1280    -1.2160     1.5180 c3         1 6V6      -0.146400
     27 C10         -2.5690    -0.8120     1.9050 c3         1 6V6      -0.061400
     28 C11         -3.6510    -1.5760     1.1140 c3         1 6V6      -0.079400
     29 C12         -5.0840    -1.1890     1.5390 c3         1 6V6      -0.070400
     30 C13         -6.1750    -1.9210     0.7290 c3         1 6V6      -0.074400
     31 C14         -7.6060    -1.5240     1.1500 c3         1 6V6      -0.072400
     32 C15         -8.6990    -2.2440     0.3300 c3         1 6V6      -0.075400
     33 C16        -10.1300    -1.8430     0.7470 c3         1 6V6      -0.074400
     34 C17        -11.2230    -2.5630    -0.0730 c3         1 6V6      -0.075400
     35 C18        -12.6550    -2.1620     0.3460 c3         1 6V6      -0.074400
     36 C19        -13.7480    -2.8820    -0.4740 c3         1 6V6      -0.074400
     37 C20        -15.1800    -2.4810    -0.0560 c3         1 6V6      -0.074400
     38 C21        -16.2730    -3.2010    -0.8750 c3         1 6V6      -0.075400
     39 C22        -17.7050    -2.8010    -0.4570 c3         1 6V6      -0.075400
     40 C23        -18.7950    -3.5190    -1.2740 c3         1 6V6      -0.088100
     41 O8           0.2530    -0.6830     3.4460 o          1 6V6      -0.524000
     42 C24          3.2520     3.0610    -0.4970 c          1 6V6       0.600100
     43 O10          3.2760     4.2780    -0.3650 o          1 6V6      -0.515000
     44 C25          4.0750     2.3090    -1.5430 c3         1 6V6      -0.142400
     45 C26          5.5050     2.0180    -1.0300 c3         1 6V6      -0.066400
     46 C27          6.3690     1.2470    -2.0530 c3         1 6V6      -0.077400
     47 C28          7.7960     0.9570    -1.5410 c3         1 6V6      -0.073400
     48 C29          8.6600     0.1860    -2.5640 c3         1 6V6      -0.076400
     49 C30         10.0870    -0.1060    -2.0510 c3         1 6V6      -0.071400
     50 C31         10.9520    -0.8770    -3.0710 c3         1 6V6      -0.043200
     51 C32         12.3440    -1.1540    -2.5430 c2         1 6V6      -0.211200
     52 C33         12.8470    -2.3720    -2.2880 c2         1 6V6      -0.225200
     53 C34         14.2400    -2.6510    -1.7630 c3         1 6V6      -0.039200
     54 C35         14.2140    -3.2800    -0.3540 c3         1 6V6      -0.072400
     55 C36         15.6240    -3.5700     0.2070 c3         1 6V6      -0.075400
     56 C37         15.5950    -4.1980     1.6180 c3         1 6V6      -0.076400
     57 C38         17.0040    -4.4880     2.1790 c3         1 6V6      -0.075400
     58 C39         16.9760    -5.1150     3.5860 c3         1 6V6      -0.088100
     59 H9           2.1340     1.0900     2.6000 h1         1 6V6       0.047700
     60 H10          0.7360     2.0420     3.1370 h1         1 6V6       0.047700
     61 H16         -0.9970    -1.0110     0.4490 hc         1 6V6       0.088700
     62 H17         -0.9800    -2.2810     1.7300 hc         1 6V6       0.088700
     63 H18         -2.7150    -0.9890     2.9780 hc         1 6V6       0.043200
     64 H19         -2.6980     0.2660     1.7400 hc         1 6V6       0.043200
     65 H20         -3.5240    -1.3770     0.0420 hc         1 6V6       0.050200
     66 H21         -3.5120    -2.6550     1.2580 hc         1 6V6       0.050200
     67 H22         -5.2160    -1.4140     2.6050 hc         1 6V6       0.035200
     68 H23         -5.2120    -0.1060     1.4240 hc         1 6V6       0.035200
     69 H24         -6.0380    -1.7030    -0.3380 hc         1 6V6       0.040200
     70 H25         -6.0500    -3.0040     0.8520 hc         1 6V6       0.040200
     71 H26         -7.7450    -1.7520     2.2140 hc         1 6V6       0.033200
     72 H27         -7.7280    -0.4390     1.0370 hc         1 6V6       0.033200
     73 H28         -8.5580    -2.0180    -0.7350 hc         1 6V6       0.037200
     74 H29         -8.5800    -3.3280     0.4460 hc         1 6V6       0.037200
     75 H30        -10.2710    -2.0690     1.8120 hc         1 6V6       0.035200
     76 H31        -10.2490    -0.7580     0.6310 hc         1 6V6       0.035200
     77 H32        -11.0830    -2.3370    -1.1370 hc         1 6V6       0.037200
     78 H33        -11.1050    -3.6470     0.0430 hc         1 6V6       0.037200
     79 H34        -12.7960    -2.3880     1.4100 hc         1 6V6       0.035700
     80 H35        -12.7740    -1.0770     0.2290 hc         1 6V6       0.035700
     81 H36        -13.6070    -2.6560    -1.5390 hc         1 6V6       0.036700
     82 H37        -13.6290    -3.9670    -0.3580 hc         1 6V6       0.036700
     83 H38        -15.3200    -2.7070     1.0090 hc         1 6V6       0.036200
     84 H39        -15.2980    -1.3970    -0.1720 hc         1 6V6       0.036200
     85 H40        -16.1330    -2.9760    -1.9400 hc         1 6V6       0.036700
     86 H41        -16.1540    -4.2860    -0.7590 hc         1 6V6       0.036700
     87 H42        -17.8500    -3.0270     0.6070 hc         1 6V6       0.035700
     88 H43        -17.8280    -1.7170    -0.5730 hc         1 6V6       0.035700
     89 H44        -19.7920    -3.2030    -0.9420 hc         1 6V6       0.030033
     90 H45        -18.6990    -3.2840    -2.3410 hc         1 6V6       0.030033
     91 H46        -18.7210    -4.6060    -1.1500 hc         1 6V6       0.030033
     92 H47          3.5950     1.3440    -1.7480 hc         1 6V6       0.075700
     93 H48          4.1360     2.9130    -2.4560 hc         1 6V6       0.075700
     94 H49          5.9990     2.9660    -0.7830 hc         1 6V6       0.049200
     95 H50          5.4440     1.4380    -0.1000 hc         1 6V6       0.049200
     96 H51          5.8750     0.2990    -2.3000 hc         1 6V6       0.038700
     97 H52          6.4310     1.8280    -2.9820 hc         1 6V6       0.038700
     98 H53          8.2910     1.9050    -1.2950 hc         1 6V6       0.038200
     99 H54          7.7350     0.3760    -0.6120 hc         1 6V6       0.038200
    100 H55          8.1650    -0.7620    -2.8110 hc         1 6V6       0.037700
    101 H56          8.7220     0.7660    -3.4930 hc         1 6V6       0.037700
    102 H57         10.5830     0.8410    -1.8040 hc         1 6V6       0.039200
    103 H58         10.0260    -0.6880    -1.1230 hc         1 6V6       0.039200
    104 H59         10.4470    -1.8170    -3.3270 hc         1 6V6       0.043200
    105 H60         11.0190    -0.2970    -4.0000 hc         1 6V6       0.043200
    106 H61         12.9480    -0.2600    -2.3740 ha         1 6V6       0.164000
    107 H62         12.2430    -3.2670    -2.4590 ha         1 6V6       0.165000
    108 H63         14.7650    -3.3260    -2.4510 hc         1 6V6       0.040700
    109 H64         14.8260    -1.7240    -1.7280 hc         1 6V6       0.040700
    110 H65         13.6850    -2.6030     0.3290 hc         1 6V6       0.040700
    111 H66         13.6400    -4.2140    -0.3880 hc         1 6V6       0.040700
    112 H67         16.1520    -4.2450    -0.4780 hc         1 6V6       0.035700
    113 H68         16.1970    -2.6350     0.2410 hc         1 6V6       0.035700
    114 H69         15.0670    -3.5230     2.3020 hc         1 6V6       0.038200
    115 H70         15.0220    -5.1330     1.5840 hc         1 6V6       0.038200
    116 H71         17.5350    -5.1650     1.4980 hc         1 6V6       0.035200
    117 H72         17.5800    -3.5550     2.2160 hc         1 6V6       0.035200
    118 H73         16.4820    -4.4450     4.3000 hc         1 6V6       0.031033
    119 H74         16.4360    -6.0700     3.5750 hc         1 6V6       0.031033
    120 H75         17.9970    -5.3020     3.9410 hc         1 6V6       0.031033
    121 H8           2.1690     3.4820     1.8980 h1         1 6V6       0.052700
@<TRIPOS>BOND
     1     1     7 1   
     2     1     8 1   
     3     1    13 1   
     4     1    14 1   
     5     2     4 1   
     6     2    10 1   
     7     2    15 1   
     8     2    16 1   
     9     3     6 1   
    10     4     5 1   
    11     4    11 1   
    12     4    17 1   
    13     5    12 1   
    14     5    18 1   
    15     5    19 1   
    16     6     8 1   
    17     6     9 1   
    18     6    10 1   
    19     7    22 1   
    20     7    23 1   
    21     7   121 1   
    22    11    20 1   
    23    12    21 1   
    24    22    24 1   
    25    22    59 1   
    26    22    60 1   
    27    23    42 1   
    28    24    25 1   
    29    25    26 1   
    30    25    41 2   
    31    26    27 1   
    32    26    61 1   
    33    26    62 1   
    34    27    28 1   
    35    27    63 1   
    36    27    64 1   
    37    28    29 1   
    38    28    65 1   
    39    28    66 1   
    40    29    30 1   
    41    29    67 1   
    42    29    68 1   
    43    30    31 1   
    44    30    69 1   
    45    30    70 1   
    46    31    32 1   
    47    31    71 1   
    48    31    72 1   
    49    32    33 1   
    50    32    73 1   
    51    32    74 1   
    52    33    34 1   
    53    33    75 1   
    54    33    76 1   
    55    34    35 1   
    56    34    77 1   
    57    34    78 1   
    58    35    36 1   
    59    35    79 1   
    60    35    80 1   
    61    36    37 1   
    62    36    81 1   
    63    36    82 1   
    64    37    38 1   
    65    37    83 1   
    66    37    84 1   
    67    38    39 1   
    68    38    85 1   
    69    38    86 1   
    70    39    40 1   
    71    39    87 1   
    72    39    88 1   
    73    40    89 1   
    74    40    90 1   
    75    40    91 1   
    76    42    43 2   
    77    42    44 1   
    78    44    45 1   
    79    44    92 1   
    80    44    93 1   
    81    45    46 1   
    82    45    94 1   
    83    45    95 1   
    84    46    47 1   
    85    46    96 1   
    86    46    97 1   
    87    47    48 1   
    88    47    98 1   
    89    47    99 1   
    90    48    49 1   
    91    48   100 1   
    92    48   101 1   
    93    49    50 1   
    94    49   102 1   
    95    49   103 1   
    96    50    51 1   
    97    50   104 1   
    98    50   105 1   
    99    51    52 2   
   100    51   106 1   
   101    52    53 1   
   102    52   107 1   
   103    53    54 1   
   104    53   108 1   
   105    53   109 1   
   106    54    55 1   
   107    54   110 1   
   108    54   111 1   
   109    55    56 1   
   110    55   112 1   
   111    55   113 1   
   112    56    57 1   
   113    56   114 1   
   114    56   115 1   
   115    57    58 1   
   116    57   116 1   
   117    57   117 1   
   118    58   118 1   
   119    58   119 1   
   120    58   120 1   
@<TRIPOS>SUBSTRUCTURE
     1 6V6         1 TEMP              0 ****  ****    0 ROOT
