@<TRIPOS>MOLECULE
6V6
  121   120     1     0     0
SMALL
abcg2


@<TRIPOS>ATOM
      1 C2           1.2600     4.6550     0.5440 c3         1 6V6       0.220600
      2 C3          -3.0700     5.3530     0.8060 c3         1 6V6       0.185600
      3 O3          -0.7970     6.1300    -1.2790 o          1 6V6      -0.811000
      4 C4          -4.1530     4.3030     0.5710 c3         1 6V6       0.148300
      5 C5          -5.4890     4.8150     1.0720 c3         1 6V6       0.163600
      6 P1          -1.0340     4.7410    -0.7760 p5         1 6V6       1.398800
      7 C1           1.7570     3.6790     1.5960 c3         1 6V6       0.157300
      8 O1           0.3530     4.0240    -0.3340 os         1 6V6      -0.567400
      9 O2          -1.7520     3.7320    -1.6400 o          1 6V6      -0.811000
     10 O4          -1.7630     4.8030     0.6930 os         1 6V6      -0.624400
     11 O5          -4.2920     3.9420    -0.7790 oh         1 6V6      -0.712000
     12 O6          -6.4420     3.7840     0.9680 oh         1 6V6      -0.643000
     13 H1           0.8190     5.5070     1.0710 h1         1 6V6       0.034700
     14 H2           2.1120     5.0430    -0.0210 h1         1 6V6       0.034700
     15 H3          -3.2050     6.2000     0.1240 h1         1 6V6       0.032700
     16 H4          -3.1550     5.7390     1.8250 h1         1 6V6       0.032700
     17 H5          -3.8850     3.4340     1.1890 h1         1 6V6       0.036700
     18 H6          -5.3650     5.1430     2.1120 h1         1 6V6       0.011200
     19 H7          -5.7820     5.7010     0.4910 h1         1 6V6       0.011200
     20 H12         -3.4050     3.7370    -1.1460 ho         1 6V6       0.515000
     21 H13         -7.2710     4.1130     1.3260 ho         1 6V6       0.419000
     22 C6           0.6900     3.1420     2.5240 c3         1 6V6       0.175600
     23 O7           2.3930     2.5540     0.9810 os         1 6V6      -0.415100
     24 O9          -0.1760     2.2760     1.8010 os         1 6V6      -0.405100
     25 C8          -1.3790     2.0230     2.3000 c          1 6V6       0.609100
     26 C9          -2.2080     1.2200     1.3370 c3         1 6V6      -0.146400
     27 C10         -3.5770     0.8310     1.8730 c3         1 6V6      -0.061400
     28 C11         -4.4800     0.2770     0.7780 c3         1 6V6      -0.079400
     29 C12         -5.8660    -0.0920     1.2880 c3         1 6V6      -0.070400
     30 C13         -6.7440    -0.7390     0.2240 c3         1 6V6      -0.074400
     31 C14         -8.1270    -1.1240     0.7340 c3         1 6V6      -0.072400
     32 C15         -8.9860    -1.8120    -0.3200 c3         1 6V6      -0.075400
     33 C16        -10.3650    -2.2130     0.1910 c3         1 6V6      -0.074400
     34 C17        -11.2110    -2.9230    -0.8590 c3         1 6V6      -0.075400
     35 C18        -12.5880    -3.3310    -0.3510 c3         1 6V6      -0.074400
     36 C19        -13.4270    -4.0500    -1.4000 c3         1 6V6      -0.074400
     37 C20        -14.8050    -4.4590    -0.8960 c3         1 6V6      -0.074400
     38 C21        -15.6390    -5.1870    -1.9440 c3         1 6V6      -0.075400
     39 C22        -17.0200    -5.5910    -1.4440 c3         1 6V6      -0.075400
     40 C23        -17.8380    -6.3320    -2.4930 c3         1 6V6      -0.088100
     41 O8          -1.7400     2.4020     3.3870 o          1 6V6      -0.524000
     42 C24          3.6870     2.6250     0.6720 c          1 6V6       0.600100
     43 O10          4.3830     3.5750     0.9270 o          1 6V6      -0.515000
     44 C25          4.1440     1.3870    -0.0490 c3         1 6V6      -0.142400
     45 C26          5.6530     1.1990    -0.0520 c3         1 6V6      -0.066400
     46 C27          6.0640    -0.0400    -0.8370 c3         1 6V6      -0.077400
     47 C28          7.5690    -0.2810    -0.8280 c3         1 6V6      -0.073400
     48 C29          7.9770    -1.5120    -1.6270 c3         1 6V6      -0.076400
     49 C30          9.4800    -1.7600    -1.6270 c3         1 6V6      -0.071400
     50 C31          9.8710    -3.0110    -2.4150 c3         1 6V6      -0.043200
     51 C32         11.3530    -3.1980    -2.4980 c2         1 6V6      -0.211200
     52 C33         12.0340    -4.1970    -1.9430 c2         1 6V6      -0.225200
     53 C34         13.5200    -4.3610    -1.9980 c3         1 6V6      -0.039200
     54 C35         14.1850    -4.1870    -0.6320 c3         1 6V6      -0.072400
     55 C36         15.6900    -4.4180    -0.6770 c3         1 6V6      -0.075400
     56 C37         16.3750    -4.1950     0.6650 c3         1 6V6      -0.076400
     57 C38         17.8790    -4.4370     0.6200 c3         1 6V6      -0.075400
     58 C39         18.5600    -4.1940     1.9590 c3         1 6V6      -0.088100
     59 H9           1.1550     2.5940     3.3490 h1         1 6V6       0.047700
     60 H10          0.1430     3.9860     2.9480 h1         1 6V6       0.047700
     61 H16         -2.3000     1.8120     0.4200 hc         1 6V6       0.088700
     62 H17         -1.6440     0.3290     1.0440 hc         1 6V6       0.088700
     63 H18         -3.4670     0.0920     2.6710 hc         1 6V6       0.043200
     64 H19         -4.0660     1.6980     2.3250 hc         1 6V6       0.043200
     65 H20         -4.5790     1.0250    -0.0160 hc         1 6V6       0.050200
     66 H21         -4.0090    -0.6010     0.3210 hc         1 6V6       0.050200
     67 H22         -5.7740    -0.7740     2.1410 hc         1 6V6       0.035200
     68 H23         -6.3560     0.8120     1.6650 hc         1 6V6       0.035200
     69 H24         -6.8460    -0.0570    -0.6270 hc         1 6V6       0.040200
     70 H25         -6.2410    -1.6330    -0.1630 hc         1 6V6       0.040200
     71 H26         -8.0220    -1.7870     1.6010 hc         1 6V6       0.033200
     72 H27         -8.6440    -0.2290     1.0990 hc         1 6V6       0.033200
     73 H28         -9.0970    -1.1510    -1.1860 hc         1 6V6       0.037200
     74 H29         -8.4630    -2.7030    -0.6850 hc         1 6V6       0.037200
     75 H30        -10.2530    -2.8650     1.0650 hc         1 6V6       0.035200
     76 H31        -10.8960    -1.3220     0.5440 hc         1 6V6       0.035200
     77 H32        -11.3240    -2.2720    -1.7330 hc         1 6V6       0.037200
     78 H33        -10.6770    -3.8130    -1.2120 hc         1 6V6       0.037200
     79 H34        -12.4760    -3.9770     0.5260 hc         1 6V6       0.035700
     80 H35        -13.1260    -2.4410    -0.0040 hc         1 6V6       0.035700
     81 H36        -13.5390    -3.4050    -2.2790 hc         1 6V6       0.036700
     82 H37        -12.8890    -4.9400    -1.7460 hc         1 6V6       0.036700
     83 H38        -14.6940    -5.1000    -0.0140 hc         1 6V6       0.036200
     84 H39        -15.3460    -3.5690    -0.5560 hc         1 6V6       0.036200
     85 H40        -15.7450    -4.5490    -2.8290 hc         1 6V6       0.036700
     86 H41        -15.1000    -6.0800    -2.2800 hc         1 6V6       0.036700
     87 H42        -16.9120    -6.2200    -0.5550 hc         1 6V6       0.035700
     88 H43        -17.5620    -4.6970    -1.1170 hc         1 6V6       0.035700
     89 H44        -18.8250    -6.6020    -2.1150 hc         1 6V6       0.030033
     90 H45        -17.9820    -5.7210    -3.3860 hc         1 6V6       0.030033
     91 H46        -17.3390    -7.2520    -2.8010 hc         1 6V6       0.030033
     92 H47          3.6450     0.5140     0.3790 hc         1 6V6       0.075700
     93 H48          3.7730     1.4640    -1.0780 hc         1 6V6       0.075700
     94 H49          6.1380     2.0790    -0.4810 hc         1 6V6       0.049200
     95 H50          6.0140     1.1150     0.9770 hc         1 6V6       0.049200
     96 H51          5.5550    -0.9190    -0.4270 hc         1 6V6       0.038700
     97 H52          5.7180     0.0560    -1.8720 hc         1 6V6       0.038700
     98 H53          8.0800     0.6010    -1.2300 hc         1 6V6       0.038200
     99 H54          7.9120    -0.3880     0.2060 hc         1 6V6       0.038200
    100 H55          7.4640    -2.3920    -1.2250 hc         1 6V6       0.037700
    101 H56          7.6300    -1.4040    -2.6610 hc         1 6V6       0.037700
    102 H57          9.9930    -0.8890    -2.0480 hc         1 6V6       0.039200
    103 H58          9.8380    -1.8590    -0.5980 hc         1 6V6       0.039200
    104 H59          9.4070    -3.8920    -1.9610 hc         1 6V6       0.043200
    105 H60          9.4600    -2.9290    -3.4270 hc         1 6V6       0.043200
    106 H61         11.9010    -2.4330    -3.0460 ha         1 6V6       0.164000
    107 H62         11.4890    -4.9560    -1.3840 ha         1 6V6       0.165000
    108 H63         13.7620    -5.3580    -2.3830 hc         1 6V6       0.040700
    109 H64         13.9480    -3.6430    -2.7040 hc         1 6V6       0.040700
    110 H65         13.9780    -3.1790    -0.2600 hc         1 6V6       0.040700
    111 H66         13.7310    -4.8760     0.0880 hc         1 6V6       0.040700
    112 H67         15.8880    -5.4380    -1.0230 hc         1 6V6       0.035700
    113 H68         16.1370    -3.7530    -1.4250 hc         1 6V6       0.035700
    114 H69         16.1850    -3.1710     1.0060 hc         1 6V6       0.038200
    115 H70         15.9250    -4.8510     1.4190 hc         1 6V6       0.038200
    116 H71         18.0680    -5.4640     0.2920 hc         1 6V6       0.035200
    117 H72         18.3250    -3.7910    -0.1430 hc         1 6V6       0.035200
    118 H73         18.4220    -3.1630     2.2910 hc         1 6V6       0.031033
    119 H74         18.1500    -4.8450     2.7340 hc         1 6V6       0.031033
    120 H75         19.6330    -4.3820     1.9040 hc         1 6V6       0.031033
    121 H8           2.4680     4.2230     2.2250 h1         1 6V6       0.052700
@<TRIPOS>BOND
     1     1     7 1   
     2     1     8 1   
     3     1    13 1   
     4     1    14 1   
     5     2     4 1   
     6     2    10 1   
     7     2    15 1   
     8     2    16 1   
     9     3     6 1   
    10     4     5 1   
    11     4    11 1   
    12     4    17 1   
    13     5    12 1   
    14     5    18 1   
    15     5    19 1   
    16     6     8 1   
    17     6     9 1   
    18     6    10 1   
    19     7    22 1   
    20     7    23 1   
    21     7   121 1   
    22    11    20 1   
    23    12    21 1   
    24    22    24 1   
    25    22    59 1   
    26    22    60 1   
    27    23    42 1   
    28    24    25 1   
    29    25    26 1   
    30    25    41 2   
    31    26    27 1   
    32    26    61 1   
    33    26    62 1   
    34    27    28 1   
    35    27    63 1   
    36    27    64 1   
    37    28    29 1   
    38    28    65 1   
    39    28    66 1   
    40    29    30 1   
    41    29    67 1   
    42    29    68 1   
    43    30    31 1   
    44    30    69 1   
    45    30    70 1   
    46    31    32 1   
    47    31    71 1   
    48    31    72 1   
    49    32    33 1   
    50    32    73 1   
    51    32    74 1   
    52    33    34 1   
    53    33    75 1   
    54    33    76 1   
    55    34    35 1   
    56    34    77 1   
    57    34    78 1   
    58    35    36 1   
    59    35    79 1   
    60    35    80 1   
    61    36    37 1   
    62    36    81 1   
    63    36    82 1   
    64    37    38 1   
    65    37    83 1   
    66    37    84 1   
    67    38    39 1   
    68    38    85 1   
    69    38    86 1   
    70    39    40 1   
    71    39    87 1   
    72    39    88 1   
    73    40    89 1   
    74    40    90 1   
    75    40    91 1   
    76    42    43 2   
    77    42    44 1   
    78    44    45 1   
    79    44    92 1   
    80    44    93 1   
    81    45    46 1   
    82    45    94 1   
    83    45    95 1   
    84    46    47 1   
    85    46    96 1   
    86    46    97 1   
    87    47    48 1   
    88    47    98 1   
    89    47    99 1   
    90    48    49 1   
    91    48   100 1   
    92    48   101 1   
    93    49    50 1   
    94    49   102 1   
    95    49   103 1   
    96    50    51 1   
    97    50   104 1   
    98    50   105 1   
    99    51    52 2   
   100    51   106 1   
   101    52    53 1   
   102    52   107 1   
   103    53    54 1   
   104    53   108 1   
   105    53   109 1   
   106    54    55 1   
   107    54   110 1   
   108    54   111 1   
   109    55    56 1   
   110    55   112 1   
   111    55   113 1   
   112    56    57 1   
   113    56   114 1   
   114    56   115 1   
   115    57    58 1   
   116    57   116 1   
   117    57   117 1   
   118    58   118 1   
   119    58   119 1   
   120    58   120 1   
@<TRIPOS>SUBSTRUCTURE
     1 6V6         1 TEMP              0 ****  ****    0 ROOT
