@<TRIPOS>MOLECULE
6V9
   13    13     1     0     0
SMALL
No Charge or Current Charge


@<TRIPOS>ATOM
      1 C1          -1.8860    -0.1450     0.0420 cc         1 6V9       0.353700
      2 C2          -3.3410     0.2310     0.0460 c3         1 6V9      -0.109400
      3 C4           1.9850    -0.0030     0.0150 c          1 6V9       0.738600
      4 O1           2.7070    -0.9890     0.0080 o          1 6V9      -0.707500
      5 C3           0.5220    -0.1980     0.0230 cc         1 6V9      -0.223600
      6 S           -0.6550     1.0910     0.0340 ss         1 6V9      -0.052400
      7 N1          -1.4650    -1.4040     0.0320 nd         1 6V9      -0.669000
      8 C21         -0.0760    -1.4350     0.0230 cd         1 6V9       0.232900
      9 H1          -3.6970     0.4050    -0.9760 hc         1 6V9       0.034367
     10 H2          -3.9550    -0.5600     0.4920 hc         1 6V9       0.034367
     11 H3          -3.5050     1.1480     0.6240 hc         1 6V9       0.034367
     12 H5           0.4360    -2.3910     0.0170 h4         1 6V9       0.040100
     13 O2           2.4250     1.1370     0.0160 o          1 6V9      -0.707500
@<TRIPOS>BOND
     1     1     2 1   
     2     1     6 1   
     3     1     7 2   
     4     2     9 1   
     5     2    10 1   
     6     2    11 1   
     7     3     4 1   
     8     3     5 1   
     9     3    13 1   
    10     5     6 1   
    11     5     8 2   
    12     7     8 1   
    13     8    12 1   
@<TRIPOS>SUBSTRUCTURE
     1 6V9         1 TEMP              0 ****  ****    0 ROOT
