@<TRIPOS>MOLECULE
6V9
   13    13     1     0     0
SMALL
bcc


@<TRIPOS>ATOM
      1 C1          -1.8930    -0.1610     0.0510 cc         1 6V9       0.353700
      2 C2          -3.3240     0.2480     0.0370 c3         1 6V9      -0.109400
      3 C4           2.0160     0.0230    -0.0320 c          1 6V9       0.949200
      4 O1           2.7750    -0.9600     0.0150 o          1 6V9      -0.812800
      5 C3           0.5430    -0.2740     0.0130 cc         1 6V9      -0.144000
      6 S           -0.6160     0.9990    -0.0460 ss         1 6V9      -0.197300
      7 N1          -1.4810    -1.3910     0.1220 nd         1 6V9      -0.669000
      8 C21         -0.1180    -1.4580     0.1000 cd         1 6V9       0.298200
      9 H1          -3.6020     0.6790    -0.9250 hc         1 6V9       0.034367
     10 H2          -3.9550    -0.6210     0.2170 hc         1 6V9       0.034367
     11 H3          -3.5350     0.9950     0.8020 hc         1 6V9       0.034367
     12 H5           0.3690    -2.4220     0.1530 h4         1 6V9       0.040100
     13 O2           2.3150     1.2290    -0.1100 o          1 6V9      -0.812800
@<TRIPOS>BOND
     1     1     2 1   
     2     1     6 1   
     3     1     7 2   
     4     2     9 1   
     5     2    10 1   
     6     2    11 1   
     7     3     4 1   
     8     3     5 1   
     9     3    13 1   
    10     5     6 1   
    11     5     8 2   
    12     7     8 1   
    13     8    12 1   
@<TRIPOS>SUBSTRUCTURE
     1 6V9         1 TEMP              0 ****  ****    0 ROOT
