@<TRIPOS>MOLECULE
6VA
   34    34     1     0     0
SMALL
abcg2


@<TRIPOS>ATOM
      1 N3          -0.3180    -0.6820     1.2990 n8         1 6VA      -0.985200
      2 C14          0.6370    -0.5200    -1.0180 c3         1 6VA      -0.072100
      3 C15          2.0330    -0.2130    -0.5610 ca         1 6VA      -0.082300
      4 C16          2.5750     1.0580    -0.7560 ca         1 6VA      -0.111500
      5 C17          3.8420     1.3760    -0.2870 ca         1 6VA      -0.107000
      6 C18          4.5930     0.4250     0.3930 ca         1 6VA      -0.111000
      7 C19          4.0680    -0.8440     0.5930 ca         1 6VA      -0.107000
      8 C20          2.7990    -1.1580     0.1190 ca         1 6VA      -0.111500
      9 C22         -2.9840     0.4110     0.2380 c3         1 6VA       0.160000
     10 C24         -2.6120     1.7420     0.8810 c3         1 6VA      -0.120600
     11 C13         -0.4170    -0.0370     0.0040 c3         1 6VA       0.145500
     12 C23         -4.1970     0.6040    -0.6740 c3         1 6VA      -0.120600
     13 C21         -1.8210    -0.1750    -0.6000 c3         1 6VA       0.185300
     14 O5          -2.1070    -1.5150    -0.9380 oh         1 6VA      -0.668000
     15 H1          -0.4850    -1.6760     1.2010 hn         1 6VA       0.397500
     16 H2           0.6280    -0.5960     1.6510 hn         1 6VA       0.397500
     17 H4           0.4530    -0.0350    -1.9820 hc         1 6VA       0.058700
     18 H5           0.5190    -1.5950    -1.1750 hc         1 6VA       0.058700
     19 H6           1.9980     1.8070    -1.2860 ha         1 6VA       0.109500
     20 H7           4.2430     2.3680    -0.4520 ha         1 6VA       0.112000
     21 H8           5.5810     0.6700     0.7600 ha         1 6VA       0.112000
     22 H9           4.6450    -1.5940     1.1190 ha         1 6VA       0.112000
     23 H10          2.4040    -2.1550     0.2740 ha         1 6VA       0.109500
     24 H11         -1.8240     1.6150     1.6210 hc         1 6VA       0.045367
     25 H12         -2.2710     2.4590     0.1320 hc         1 6VA       0.045367
     26 H13         -3.4810     2.1800     1.3770 hc         1 6VA       0.045367
     27 H14         -0.2420     1.0330     0.1550 h1         1 6VA       0.060700
     28 H15         -5.0590     0.9540    -0.1010 hc         1 6VA       0.045367
     29 H16         -3.9940     1.3530    -1.4410 hc         1 6VA       0.045367
     30 H17         -4.4780    -0.3240    -1.1750 hc         1 6VA       0.045367
     31 H18         -1.7980     0.3930    -1.5370 h1         1 6VA       0.059700
     32 H19         -4.2190    -0.4770     1.4660 ho         1 6VA       0.444000
     33 H20         -2.5510    -1.9010    -0.1720 ho         1 6VA       0.463000
     34 O6          -3.2880    -0.5570     1.2370 oh         1 6VA      -0.658000
@<TRIPOS>BOND
     1     1    11 1   
     2     1    15 1   
     3     1    16 1   
     4     2     3 1   
     5     2    11 1   
     6     2    17 1   
     7     2    18 1   
     8     3     4 ar  
     9     3     8 ar  
    10     4     5 ar  
    11     4    19 1   
    12     5     6 ar  
    13     5    20 1   
    14     6     7 ar  
    15     6    21 1   
    16     7     8 ar  
    17     7    22 1   
    18     8    23 1   
    19     9    10 1   
    20     9    12 1   
    21     9    13 1   
    22     9    34 1   
    23    10    24 1   
    24    10    25 1   
    25    10    26 1   
    26    11    13 1   
    27    11    27 1   
    28    12    28 1   
    29    12    29 1   
    30    12    30 1   
    31    13    14 1   
    32    13    31 1   
    33    14    33 1   
    34    32    34 1   
@<TRIPOS>SUBSTRUCTURE
     1 6VA         1 TEMP              0 ****  ****    0 ROOT
