@<TRIPOS>MOLECULE
6VA
   34    34     1     0     0
SMALL
No Charge or Current Charge


@<TRIPOS>ATOM
      1 N3          -0.3830    -0.7050     1.2180 n8         1 6VA      -0.985200
      2 C14          0.6690    -0.4280    -1.0220 c3         1 6VA      -0.072100
      3 C15          2.0560    -0.1720    -0.4380 ca         1 6VA      -0.082300
      4 C16          2.5330     1.1470    -0.2980 ca         1 6VA      -0.111500
      5 C17          3.8100     1.3870     0.2380 ca         1 6VA      -0.107000
      6 C18          4.6200     0.3110     0.6360 ca         1 6VA      -0.111000
      7 C19          4.1530    -1.0070     0.4960 ca         1 6VA      -0.107000
      8 C20          2.8760    -1.2480    -0.0410 ca         1 6VA      -0.111500
      9 C22         -3.0730     0.4790     0.1270 c3         1 6VA       0.160000
     10 C24         -2.8840     1.9970     0.3790 c3         1 6VA      -0.120600
     11 C13         -0.4830     0.0150    -0.0830 c3         1 6VA       0.145500
     12 C23         -4.4630     0.2430    -0.5210 c3         1 6VA      -0.120600
     13 C21         -1.9050    -0.1340    -0.7430 c3         1 6VA       0.185300
     14 O5          -2.1660    -1.5330    -0.9890 oh         1 6VA      -0.668000
     15 H1          -0.2330    -1.7010     1.0190 hn         1 6VA       0.397500
     16 H2           0.5070    -0.4370     1.6580 hn         1 6VA       0.397500
     17 H4           0.5740     0.1130    -1.9720 hc         1 6VA       0.058700
     18 H5           0.5500    -1.4900    -1.2720 hc         1 6VA       0.058700
     19 H6           1.9140     1.9870    -0.6060 ha         1 6VA       0.109500
     20 H7           4.1720     2.4080     0.3450 ha         1 6VA       0.112000
     21 H8           5.6080     0.4970     1.0510 ha         1 6VA       0.112000
     22 H9           4.7800    -1.8420     0.8020 ha         1 6VA       0.112000
     23 H10          2.5240    -2.2720    -0.1450 ha         1 6VA       0.109500
     24 H11         -1.9970     2.2020     0.9890 hc         1 6VA       0.045367
     25 H12         -2.7810     2.5370    -0.5700 hc         1 6VA       0.045367
     26 H13         -3.7470     2.4140     0.9120 hc         1 6VA       0.045367
     27 H14         -0.3270     1.0820     0.1210 h1         1 6VA       0.060700
     28 H15         -5.2590     0.6910     0.0860 hc         1 6VA       0.045367
     29 H16         -4.5040     0.6930    -1.5200 hc         1 6VA       0.045367
     30 H17         -4.6870    -0.8260    -0.6200 hc         1 6VA       0.045367
     31 H18         -1.8850     0.4080    -1.6990 h1         1 6VA       0.059700
     32 H19         -2.1030    -0.3660     1.5680 ho         1 6VA       0.444000
     33 H20         -2.5250    -1.8810    -0.1430 ho         1 6VA       0.463000
     34 O6          -3.0680    -0.1730     1.4010 oh         1 6VA      -0.658000
@<TRIPOS>BOND
     1     1    11 1   
     2     1    15 1   
     3     1    16 1   
     4     2     3 1   
     5     2    11 1   
     6     2    17 1   
     7     2    18 1   
     8     3     4 ar  
     9     3     8 ar  
    10     4     5 ar  
    11     4    19 1   
    12     5     6 ar  
    13     5    20 1   
    14     6     7 ar  
    15     6    21 1   
    16     7     8 ar  
    17     7    22 1   
    18     8    23 1   
    19     9    10 1   
    20     9    12 1   
    21     9    13 1   
    22     9    34 1   
    23    10    24 1   
    24    10    25 1   
    25    10    26 1   
    26    11    13 1   
    27    11    27 1   
    28    12    28 1   
    29    12    29 1   
    30    12    30 1   
    31    13    14 1   
    32    13    31 1   
    33    14    33 1   
    34    32    34 1   
@<TRIPOS>SUBSTRUCTURE
     1 6VA         1 TEMP              0 ****  ****    0 ROOT
