@<TRIPOS>MOLECULE
6VB
   65    69     1     0     0
SMALL
No Charge or Current Charge


@<TRIPOS>ATOM
      1 O2           6.1810    -4.2000     0.5690 o          1 6VB      -0.705867
      2 O3           5.3280    -3.7020    -1.7160 o          1 6VB      -0.705867
      3 C7          -2.1600    -1.3500    -1.1090 ca         1 6VB      -0.154300
      4 C8          -2.2990    -0.1050    -1.9820 c3         1 6VB       0.031700
      5 C9          -2.3550     1.1470    -1.1100 ca         1 6VB      -0.189300
      6 C10         -3.6160     1.6180    -0.6950 ca         1 6VB       0.018500
      7 C11         -3.7230     2.7470     0.1330 ca         1 6VB      -0.266000
      8 C12         -2.5530     3.4080     0.5450 ca         1 6VB       0.008000
      9 O13         -4.4820    -5.1690     1.0890 o          1 6VB      -0.695867
     10 C14         -0.0750     3.7850     0.6420 c3         1 6VB       0.045200
     11 C15          1.2670     3.0790     0.8770 ca         1 6VB      -0.120800
     12 C16          2.4220     3.6490     0.3000 ca         1 6VB      -0.061500
     13 C17          3.6810     3.0730     0.5080 ca         1 6VB      -0.055900
     14 C18          3.8080     1.9240     1.2970 ca         1 6VB      -0.061500
     15 C19          2.6720     1.3350     1.8850 ca         1 6VB      -0.120800
     16 C21          2.8670    -1.1560     1.7930 ca         1 6VB      -0.151800
     17 C22          4.0870    -1.5580     1.2180 ca         1 6VB       0.008000
     18 O15         -5.8340    -3.2900     0.1480 o          1 6VB      -0.695867
     19 O14         -4.7730    -3.0680     2.3910 o          1 6VB      -0.695867
     20 C5          -3.2520    -3.0210     0.3100 ca         1 6VB      -0.230500
     21 C4          -2.0000    -3.6090     0.5610 ca         1 6VB      -0.007000
     22 C6          -3.3220    -1.8870    -0.5190 ca         1 6VB      -0.007000
     23 C27         -0.9090    -1.9530    -0.8560 ca         1 6VB       0.108100
     24 O12          0.2190    -1.4310    -1.4210 oh         1 6VB      -0.568100
     25 C3          -0.8210    -3.0840    -0.0100 ca         1 6VB      -0.154300
     26 C2           0.4950    -3.8230     0.2660 c3         1 6VB       0.031700
     27 C26         -1.1840     1.8210    -0.6970 ca         1 6VB       0.183600
     28 O8           0.0250     1.3590    -1.1280 oh         1 6VB      -0.574600
     29 C13         -1.2760     2.9580     0.1480 ca         1 6VB      -0.151800
     30 S2          -5.3780     3.3850     0.6560 s6         1 6VB       1.273100
     31 O10         -5.1070     3.8610     2.0210 o          1 6VB      -0.705867
     32 O11         -5.6060     4.4350    -0.3480 o          1 6VB      -0.705867
     33 O9          -6.2310     2.1930     0.5380 o          1 6VB      -0.705867
     34 C25          1.3970     1.9140     1.6750 ca         1 6VB       0.195100
     35 O4           0.2940     1.3360     2.2370 oh         1 6VB      -0.536100
     36 C20          2.8620     0.0640     2.7090 c3         1 6VB       0.045200
     37 C            1.6840    -1.8600     1.4840 ca         1 6VB       0.183600
     38 O            0.5000    -1.4620     2.0360 oh         1 6VB      -0.574600
     39 C23          4.1390    -2.6500     0.3350 ca         1 6VB      -0.266000
     40 C24          2.9580    -3.3520     0.0400 ca         1 6VB       0.018500
     41 C1           1.7230    -2.9640     0.6000 ca         1 6VB      -0.189300
     42 S            5.7470    -3.1860    -0.4040 s6         1 6VB       1.273100
     43 O1           6.5230    -1.9370    -0.4120 o          1 6VB      -0.705867
     44 Br1          5.2320     3.8590    -0.2850 br         1 6VB      -0.161100
     45 H1          -1.4980    -0.0380    -2.7270 hc         1 6VB       0.039200
     46 H2          -3.2150    -0.1820    -2.5810 hc         1 6VB       0.039200
     47 H3          -4.5150     1.1010    -1.0230 ha         1 6VB       0.121500
     48 H4          -2.6370     4.2910     1.1750 ha         1 6VB       0.119000
     49 H5          -0.3450     4.2770     1.5840 hc         1 6VB       0.038950
     50 H6           0.0650     4.6110    -0.0670 hc         1 6VB       0.038950
     51 H7           2.3450     4.5450    -0.3110 ha         1 6VB       0.116500
     52 H8           4.7920     1.4860     1.4480 ha         1 6VB       0.116500
     53 H9           4.9980    -1.0150     1.4590 ha         1 6VB       0.119000
     54 H10         -1.9450    -4.4890     1.2000 ha         1 6VB       0.135000
     55 H11         -4.2840    -1.4150    -0.7080 ha         1 6VB       0.135000
     56 H12          0.9780    -1.9750    -1.1180 ho         1 6VB       0.451000
     57 H13          0.3550    -4.5350     1.0890 hc         1 6VB       0.039200
     58 H14          0.7090    -4.4510    -0.6070 hc         1 6VB       0.039200
     59 H15         -0.0830     0.3970    -1.3310 ho         1 6VB       0.492500
     60 H16          0.4620     0.3630     2.2790 ho         1 6VB       0.501000
     61 H17          3.8120     0.1200     3.2550 hc         1 6VB       0.038950
     62 H18          2.1050    -0.0270     3.4970 hc         1 6VB       0.038950
     63 H19         -0.1970    -2.0480     1.6670 ho         1 6VB       0.492500
     64 H20          3.0030    -4.2150    -0.6210 ha         1 6VB       0.121500
     65 S3          -4.7810    -3.7280     1.0770 s6         1 6VB       1.265100
@<TRIPOS>BOND
     1     1    42 1   
     2     2    42 1   
     3     3     4 1   
     4     3    22 ar  
     5     3    23 ar  
     6     4     5 1   
     7     4    45 1   
     8     4    46 1   
     9     5     6 ar  
    10     5    27 ar  
    11     6     7 ar  
    12     6    47 1   
    13     7     8 ar  
    14     7    30 1   
    15     8    29 ar  
    16     8    48 1   
    17     9    65 1   
    18    10    11 1   
    19    10    29 1   
    20    10    49 1   
    21    10    50 1   
    22    11    12 ar  
    23    11    34 ar  
    24    12    13 ar  
    25    12    51 1   
    26    13    14 ar  
    27    13    44 1   
    28    14    15 ar  
    29    14    52 1   
    30    15    34 ar  
    31    15    36 1   
    32    16    17 ar  
    33    16    36 1   
    34    16    37 ar  
    35    17    39 ar  
    36    17    53 1   
    37    18    65 1   
    38    19    65 1   
    39    20    21 ar  
    40    20    22 ar  
    41    20    65 1   
    42    21    25 ar  
    43    21    54 1   
    44    22    55 1   
    45    23    24 1   
    46    23    25 ar  
    47    24    56 1   
    48    25    26 1   
    49    26    41 1   
    50    26    57 1   
    51    26    58 1   
    52    27    28 1   
    53    27    29 ar  
    54    28    59 1   
    55    30    31 1   
    56    30    32 1   
    57    30    33 1   
    58    34    35 1   
    59    35    60 1   
    60    36    61 1   
    61    36    62 1   
    62    37    38 1   
    63    37    41 ar  
    64    38    63 1   
    65    39    40 ar  
    66    39    42 1   
    67    40    41 ar  
    68    40    64 1   
    69    42    43 1   
@<TRIPOS>SUBSTRUCTURE
     1 6VB         1 TEMP              0 ****  ****    0 ROOT
