@<TRIPOS>MOLECULE
6VB
   65    69     1     0     0
SMALL
abcg2


@<TRIPOS>ATOM
      1 O2           5.9850    -4.3990     0.4820 o          1 6VB      -0.705867
      2 O3           5.4870    -3.3580    -1.6880 o          1 6VB      -0.705867
      3 C7          -2.1700    -1.3920    -1.1270 ca         1 6VB      -0.154300
      4 C8          -2.3210    -0.1580    -1.9830 c3         1 6VB       0.031700
      5 C9          -2.3520     1.0850    -1.1220 ca         1 6VB      -0.189300
      6 C10         -3.5820     1.5600    -0.6830 ca         1 6VB       0.018500
      7 C11         -3.6640     2.6670     0.1410 ca         1 6VB      -0.266000
      8 C12         -2.4980     3.3090     0.5320 ca         1 6VB       0.008000
      9 O13         -4.5240    -5.0750     1.0960 o          1 6VB      -0.695867
     10 C14         -0.0480     3.6850     0.5100 c3         1 6VB       0.045200
     11 C15          1.2660     3.0120     0.8120 ca         1 6VB      -0.120800
     12 C16          2.4280     3.5990     0.3330 ca         1 6VB      -0.061500
     13 C17          3.6650     3.0570     0.6440 ca         1 6VB      -0.055900
     14 C18          3.7590     1.9250     1.4270 ca         1 6VB      -0.061500
     15 C19          2.6070     1.3150     1.9180 ca         1 6VB      -0.120800
     16 C21          2.8230    -1.1620     1.8280 ca         1 6VB      -0.151800
     17 C22          4.0430    -1.5520     1.2940 ca         1 6VB       0.008000
     18 O15         -5.7640    -2.9940     0.6370 o          1 6VB      -0.695867
     19 O14         -4.3890    -3.1930     2.6710 o          1 6VB      -0.695867
     20 C5          -3.1680    -2.9740     0.3960 ca         1 6VB      -0.230500
     21 C4          -1.9220    -3.5460     0.6230 ca         1 6VB      -0.007000
     22 C6          -3.2870    -1.9080    -0.4740 ca         1 6VB      -0.007000
     23 C27         -0.9350    -1.9920    -0.9100 ca         1 6VB       0.108100
     24 O12          0.1890    -1.4890    -1.5120 oh         1 6VB      -0.568100
     25 C3          -0.7920    -3.0720    -0.0310 ca         1 6VB      -0.154300
     26 C2           0.5330    -3.7650     0.1730 c3         1 6VB       0.031700
     27 C26         -1.1820     1.7450    -0.7240 ca         1 6VB       0.183600
     28 O8           0.0410     1.3660    -1.1360 oh         1 6VB      -0.574600
     29 C13         -1.2530     2.8690     0.1100 ca         1 6VB      -0.151800
     30 S2          -5.2520     3.3320     0.6080 s6         1 6VB       1.273100
     31 O10         -5.0650     3.9130     1.9500 o          1 6VB      -0.705867
     32 O11         -5.5600     4.3460    -0.4180 o          1 6VB      -0.705867
     33 O9          -6.1870     2.1950     0.5870 o          1 6VB      -0.705867
     34 C25          1.3590     1.8670     1.6120 ca         1 6VB       0.195100
     35 O4           0.2050     1.3600     2.0860 oh         1 6VB      -0.536100
     36 C20          2.7610     0.0490     2.7290 c3         1 6VB       0.045200
     37 C            1.6730    -1.8650     1.4640 ca         1 6VB       0.183600
     38 O            0.5150    -1.4620     2.0500 oh         1 6VB      -0.574600
     39 C23          4.1210    -2.5990     0.3930 ca         1 6VB      -0.266000
     40 C24          2.9650    -3.2670     0.0220 ca         1 6VB       0.018500
     41 C1           1.7290    -2.9240     0.5520 ca         1 6VB      -0.189300
     42 S            5.6980    -3.1490    -0.2440 s6         1 6VB       1.273100
     43 O1           6.6520    -2.0680     0.0590 o          1 6VB      -0.705867
     44 BR1          5.2380     3.8780    -0.0140 br         1 6VB      -0.161100
     45 H1          -1.5490    -0.0940    -2.7520 hc         1 6VB       0.039200
     46 H2          -3.2650    -0.2230    -2.5270 hc         1 6VB       0.039200
     47 H3          -4.4840     1.0510    -1.0000 ha         1 6VB       0.121500
     48 H4          -2.5500     4.1690     1.1890 ha         1 6VB       0.119000
     49 H5          -0.3350     4.2740     1.3860 hc         1 6VB       0.038950
     50 H6           0.1350     4.4220    -0.2780 hc         1 6VB       0.038950
     51 H7           2.3530     4.4810    -0.2910 ha         1 6VB       0.116500
     52 H8           4.7260     1.5040     1.6750 ha         1 6VB       0.116500
     53 H9           4.9400    -1.0210     1.5860 ha         1 6VB       0.119000
     54 H10         -1.8200    -4.3820     1.3050 ha         1 6VB       0.135000
     55 H11         -4.2570    -1.4600    -0.6500 ha         1 6VB       0.135000
     56 H12          0.1980    -1.7090    -2.4530 ho         1 6VB       0.451000
     57 H13          0.3920    -4.5320     0.9390 hc         1 6VB       0.039200
     58 H14          0.7850    -4.3060    -0.7410 hc         1 6VB       0.039200
     59 H15          0.0770     0.4310    -1.3950 ho         1 6VB       0.492500
     60 H16          0.2660     0.4000     2.2250 ho         1 6VB       0.501000
     61 H17          3.6960     0.1100     3.2900 hc         1 6VB       0.038950
     62 H18          1.9770    -0.0470     3.4820 hc         1 6VB       0.038950
     63 H19         -0.2510    -1.9450     1.7150 ho         1 6VB       0.492500
     64 H20          3.0110    -4.0760    -0.6970 ha         1 6VB       0.121500
     65 S3          -4.5910    -3.6150     1.2750 s6         1 6VB       1.265100
@<TRIPOS>BOND
     1     1    42 1   
     2     2    42 1   
     3     3     4 1   
     4     3    22 ar  
     5     3    23 ar  
     6     4     5 1   
     7     4    45 1   
     8     4    46 1   
     9     5     6 ar  
    10     5    27 ar  
    11     6     7 ar  
    12     6    47 1   
    13     7     8 ar  
    14     7    30 1   
    15     8    29 ar  
    16     8    48 1   
    17     9    65 1   
    18    10    11 1   
    19    10    29 1   
    20    10    49 1   
    21    10    50 1   
    22    11    12 ar  
    23    11    34 ar  
    24    12    13 ar  
    25    12    51 1   
    26    13    14 ar  
    27    13    44 1   
    28    14    15 ar  
    29    14    52 1   
    30    15    34 ar  
    31    15    36 1   
    32    16    17 ar  
    33    16    36 1   
    34    16    37 ar  
    35    17    39 ar  
    36    17    53 1   
    37    18    65 1   
    38    19    65 1   
    39    20    21 ar  
    40    20    22 ar  
    41    20    65 1   
    42    21    25 ar  
    43    21    54 1   
    44    22    55 1   
    45    23    24 1   
    46    23    25 ar  
    47    24    56 1   
    48    25    26 1   
    49    26    41 1   
    50    26    57 1   
    51    26    58 1   
    52    27    28 1   
    53    27    29 ar  
    54    28    59 1   
    55    30    31 1   
    56    30    32 1   
    57    30    33 1   
    58    34    35 1   
    59    35    60 1   
    60    36    61 1   
    61    36    62 1   
    62    37    38 1   
    63    37    41 ar  
    64    38    63 1   
    65    39    40 ar  
    66    39    42 1   
    67    40    41 ar  
    68    40    64 1   
    69    42    43 1   
@<TRIPOS>SUBSTRUCTURE
     1 6VB         1 TEMP              0 ****  ****    0 ROOT
