@<TRIPOS>MOLECULE
6VC
   68    67     1     0     0
SMALL
abcg2


@<TRIPOS>ATOM
      1 C5          -3.6040     0.0590    -0.1330 c3         1 6VC      -0.154400
      2 C6          -4.9470    -0.0490     0.5720 c3         1 6VC      -0.065400
      3 C8          -2.4220     0.1200     0.8110 c          1 6VC       0.601100
      4 O2          -2.5270     0.4340     1.9890 o          1 6VC      -0.613100
      5 N2          -1.2380    -0.1800     0.2460 ns         1 6VC      -0.496900
      6 C9           0.0090    -0.0860     0.9520 c3         1 6VC       0.030700
      7 C10          0.3890    -1.3910     1.6480 c3         1 6VC       0.142600
      8 O3           0.7920    -2.3170     0.6600 oh         1 6VC      -0.671000
      9 C12          1.1120     0.3100    -0.0320 c          1 6VC       0.602100
     10 O4           0.9140     0.3340    -1.2370 o          1 6VC      -0.610100
     11 N3           2.2940     0.5660     0.5470 ns         1 6VC      -0.500900
     12 C13          3.5070     0.9500    -0.1520 c3         1 6VC       0.083700
     13 C21          4.6710     0.0110     0.2120 c3         1 6VC       0.128300
     14 C22          4.5610    -1.4680    -0.2600 c3         1 6VC       0.164000
     15 C23          5.9500    -2.0990    -0.1560 c3         1 6VC      -0.080100
     16 O6           3.7360    -2.2000     0.6320 oh         1 6VC      -0.680000
     17 C24          4.0530    -1.5430    -1.6970 c3         1 6VC       0.131600
     18 O5           4.9030     0.0360     1.6020 oh         1 6VC      -0.719000
     19 C14          3.8710     2.4040     0.1570 c3         1 6VC      -0.089400
     20 C15          2.8130     3.4400    -0.2250 c3         1 6VC      -0.058700
     21 C16          3.2290     4.8130     0.2950 c3         1 6VC      -0.091100
     22 C20          2.5730     3.4970    -1.7310 c3         1 6VC      -0.091100
     23 C1          -6.1120    -0.0680    -0.4100 c3         1 6VC      -0.076400
     24 C2          -7.4580    -0.2140     0.2900 c3         1 6VC      -0.072400
     25 C3          -8.6770    -0.1350    -0.6310 c3         1 6VC      -0.060700
     26 C4          -8.6810    -1.2470    -1.6760 c3         1 6VC      -0.087100
     27 C7          -9.9620    -0.1730     0.1910 c3         1 6VC      -0.087100
     28 O8           4.1340    -2.8690    -2.1590 oh         1 6VC      -0.711000
     29 H1          -3.4730    -0.7770    -0.8270 hc         1 6VC       0.059200
     30 H2          -3.5780     0.9630    -0.7530 hc         1 6VC       0.059200
     31 H3          -4.9720    -0.9600     1.1790 hc         1 6VC       0.053700
     32 H4          -5.0710     0.7850     1.2660 hc         1 6VC       0.053700
     33 H5          -1.2040    -0.4220    -0.7320 hn         1 6VC       0.342500
     34 H6          -0.0790     0.6840     1.7230 h1         1 6VC       0.093700
     35 H7           1.1900    -1.2020     2.3730 h1         1 6VC       0.040700
     36 H8          -0.4750    -1.7520     2.2110 h1         1 6VC       0.040700
     37 H9           0.7900    -3.1990     1.0450 ho         1 6VC       0.458000
     38 H10          2.3230     0.6200     1.5540 hn         1 6VC       0.316500
     39 H11          3.3110     0.8570    -1.2200 h1         1 6VC       0.081700
     40 H12          5.5570     0.4360    -0.2740 h1         1 6VC       0.072700
     41 H13          6.3370    -2.0160     0.8600 hc         1 6VC       0.050033
     42 H14          5.9260    -3.1550    -0.4210 hc         1 6VC       0.050033
     43 H15          6.6530    -1.5970    -0.8220 hc         1 6VC       0.050033
     44 H16          2.7960    -2.0640     0.4370 ho         1 6VC       0.469000
     45 H17          3.0180    -1.1830    -1.7530 h1         1 6VC       0.032700
     46 H18          4.6570    -0.8600    -2.3120 h1         1 6VC       0.032700
     47 H19          4.4240    -0.7150     1.9780 ho         1 6VC       0.519000
     48 H20          4.0930     2.4940     1.2250 hc         1 6VC       0.053200
     49 H21          4.8020     2.6430    -0.3700 hc         1 6VC       0.053200
     50 H22          1.8700     3.1680     0.2640 hc         1 6VC       0.044700
     51 H23          2.4780     5.5690     0.0610 hc         1 6VC       0.035200
     52 H24          3.3700     4.8070     1.3780 hc         1 6VC       0.035200
     53 H25          4.1700     5.1310    -0.1600 hc         1 6VC       0.035200
     54 H26          2.1910     2.5560    -2.1260 hc         1 6VC       0.035200
     55 H27          1.8430     4.2700    -1.9780 hc         1 6VC       0.035200
     56 H28          3.4980     3.7350    -2.2610 hc         1 6VC       0.035200
     57 H29         -6.1050     0.8540    -1.0030 hc         1 6VC       0.036700
     58 H30         -5.9700    -0.8870    -1.1220 hc         1 6VC       0.036700
     59 H31         -7.4810    -1.1690     0.8290 hc         1 6VC       0.039700
     60 H32         -7.5440     0.5660     1.0560 hc         1 6VC       0.039700
     61 H33         -8.6380     0.8260    -1.1580 hc         1 6VC       0.043700
     62 H34         -9.5730    -1.1920    -2.3020 hc         1 6VC       0.032033
     63 H35         -7.8150    -1.1940    -2.3370 hc         1 6VC       0.032033
     64 H36         -8.6740    -2.2290    -1.1970 hc         1 6VC       0.032033
     65 H37        -10.0000     0.6440     0.9140 hc         1 6VC       0.032033
     66 H38        -10.8460    -0.0960    -0.4450 hc         1 6VC       0.032033
     67 H39        -10.0370    -1.1110     0.7470 hc         1 6VC       0.032033
     68 H40          3.6870    -2.9120    -3.0080 ho         1 6VC       0.506000
@<TRIPOS>BOND
     1     1     2 1   
     2     1     3 1   
     3     1    29 1   
     4     1    30 1   
     5     2    23 1   
     6     2    31 1   
     7     2    32 1   
     8     3     4 2   
     9     3     5 1   
    10     5     6 1   
    11     5    33 1   
    12     6     7 1   
    13     6     9 1   
    14     6    34 1   
    15     7     8 1   
    16     7    35 1   
    17     7    36 1   
    18     8    37 1   
    19     9    10 2   
    20     9    11 1   
    21    11    12 1   
    22    11    38 1   
    23    12    13 1   
    24    12    19 1   
    25    12    39 1   
    26    13    14 1   
    27    13    18 1   
    28    13    40 1   
    29    14    15 1   
    30    14    16 1   
    31    14    17 1   
    32    15    41 1   
    33    15    42 1   
    34    15    43 1   
    35    16    44 1   
    36    17    28 1   
    37    17    45 1   
    38    17    46 1   
    39    18    47 1   
    40    19    20 1   
    41    19    48 1   
    42    19    49 1   
    43    20    21 1   
    44    20    22 1   
    45    20    50 1   
    46    21    51 1   
    47    21    52 1   
    48    21    53 1   
    49    22    54 1   
    50    22    55 1   
    51    22    56 1   
    52    23    24 1   
    53    23    57 1   
    54    23    58 1   
    55    24    25 1   
    56    24    59 1   
    57    24    60 1   
    58    25    26 1   
    59    25    27 1   
    60    25    61 1   
    61    26    62 1   
    62    26    63 1   
    63    26    64 1   
    64    27    65 1   
    65    27    66 1   
    66    27    67 1   
    67    28    68 1   
@<TRIPOS>SUBSTRUCTURE
     1 6VC         1 TEMP              0 ****  ****    0 ROOT
