@<TRIPOS>MOLECULE
6VC
   68    67     1     0     0
SMALL
No Charge or Current Charge


@<TRIPOS>ATOM
      1 C5          -3.8270     1.3220     0.5300 c3         1 6VC      -0.154400
      2 C6          -4.7820     0.1190     0.7150 c3         1 6VC      -0.065400
      3 C8          -2.5480     1.1550     1.3580 c          1 6VC       0.601100
      4 O2          -2.5220     1.3160     2.5700 o          1 6VC      -0.613100
      5 N2          -1.4190     0.8550     0.6340 ns         1 6VC      -0.496900
      6 C9          -0.0750     0.6020     1.2130 c3         1 6VC       0.030700
      7 C10         -0.0080    -0.7590     1.9580 c3         1 6VC       0.142600
      8 O3          -0.3700    -1.8450     1.0880 oh         1 6VC      -0.671000
      9 C12          1.0200     0.7110     0.1170 c          1 6VC       0.602100
     10 O4           0.7600     0.7750    -1.0790 o          1 6VC      -0.610100
     11 N3           2.3170     0.7740     0.5900 ns         1 6VC      -0.500900
     12 C13          3.5260     0.9100    -0.2390 c3         1 6VC       0.083700
     13 C21          4.5900    -0.2020     0.0750 c3         1 6VC       0.128300
     14 C22          4.1640    -1.7000    -0.1750 c3         1 6VC       0.164000
     15 C23          5.4140    -2.6230    -0.1320 c3         1 6VC      -0.080100
     16 O6           3.3020    -2.1200     0.8950 oh         1 6VC      -0.680000
     17 C24          3.3840    -1.9130    -1.5140 c3         1 6VC       0.131600
     18 O5           4.9800    -0.1160     1.4580 oh         1 6VC      -0.719000
     19 C14          4.1220     2.3400    -0.0880 c3         1 6VC      -0.089400
     20 C15          3.2130     3.5140    -0.5560 c3         1 6VC      -0.058700
     21 C16          3.8160     4.8750    -0.1400 c3         1 6VC      -0.091100
     22 C20          2.9390     3.4870    -2.0790 c3         1 6VC      -0.091100
     23 C1          -6.0820     0.2480    -0.1100 c3         1 6VC      -0.076400
     24 C2          -7.0340    -0.9570     0.0750 c3         1 6VC      -0.072400
     25 C3          -8.4020    -0.8250    -0.6490 c3         1 6VC      -0.060700
     26 C4          -8.2650    -0.7190    -2.1870 c3         1 6VC      -0.087100
     27 C7          -9.3450    -1.9880    -0.2640 c3         1 6VC      -0.087100
     28 O8           2.8720    -3.2590    -1.5930 oh         1 6VC      -0.711000
     29 H1          -3.5760     1.4030    -0.5350 hc         1 6VC       0.059200
     30 H2          -4.3430     2.2300     0.8600 hc         1 6VC       0.059200
     31 H3          -4.2610    -0.8030     0.4270 hc         1 6VC       0.053700
     32 H4          -5.0370     0.0220     1.7780 hc         1 6VC       0.053700
     33 H5          -1.5300     0.7450    -0.3680 hn         1 6VC       0.342500
     34 H6           0.1400     1.3960     1.9390 h1         1 6VC       0.093700
     35 H7           1.0050    -0.9080     2.3560 h1         1 6VC       0.040700
     36 H8          -0.6900    -0.7240     2.8180 h1         1 6VC       0.040700
     37 H9          -0.3930    -2.6600     1.6380 ho         1 6VC       0.458000
     38 H10          2.4420     0.7100     1.5920 hn         1 6VC       0.316500
     39 H11          3.2490     0.7950    -1.2930 h1         1 6VC       0.081700
     40 H12          5.4570     0.0010    -0.5690 h1         1 6VC       0.072700
     41 H13          5.9550    -2.5250     0.8170 hc         1 6VC       0.050033
     42 H14          5.1370    -3.6780    -0.2420 hc         1 6VC       0.050033
     43 H15          6.1070    -2.3710    -0.9430 hc         1 6VC       0.050033
     44 H16          2.7290    -2.8030     0.4720 ho         1 6VC       0.469000
     45 H17          2.5470    -1.2080    -1.5760 h1         1 6VC       0.032700
     46 H18          4.0550    -1.7050    -2.3580 h1         1 6VC       0.032700
     47 H19          4.4650    -0.8590     1.8640 ho         1 6VC       0.519000
     48 H20          4.3810     2.4970     0.9670 hc         1 6VC       0.053200
     49 H21          5.0670     2.3900    -0.6430 hc         1 6VC       0.053200
     50 H22          2.2470     3.4270    -0.0430 hc         1 6VC       0.044700
     51 H23          3.1530     5.6990    -0.4310 hc         1 6VC       0.035200
     52 H24          3.9550     4.9240     0.9460 hc         1 6VC       0.035200
     53 H25          4.7900     5.0340    -0.6190 hc         1 6VC       0.035200
     54 H26          2.4120     2.5740    -2.3760 hc         1 6VC       0.035200
     55 H27          2.3130     4.3380    -2.3730 hc         1 6VC       0.035200
     56 H28          3.8760     3.5420    -2.6460 hc         1 6VC       0.035200
     57 H29         -6.6030     1.1690     0.1820 hc         1 6VC       0.036700
     58 H30         -5.8150     0.3490    -1.1680 hc         1 6VC       0.036700
     59 H31         -6.5300    -1.8700    -0.2680 hc         1 6VC       0.039700
     60 H32         -7.2190    -1.0890     1.1490 hc         1 6VC       0.039700
     61 H33         -8.8760     0.1010    -0.2980 hc         1 6VC       0.043700
     62 H34         -9.2530    -0.6750    -2.6610 hc         1 6VC       0.032033
     63 H35         -7.7220     0.1880    -2.4760 hc         1 6VC       0.032033
     64 H36         -7.7300    -1.5870    -2.5920 hc         1 6VC       0.032033
     65 H37         -9.4920    -2.0270     0.8220 hc         1 6VC       0.032033
     66 H38        -10.3290    -1.8620    -0.7320 hc         1 6VC       0.032033
     67 H39         -8.9310    -2.9510    -0.5900 hc         1 6VC       0.032033
     68 H40          2.4430    -3.3570    -2.4760 ho         1 6VC       0.506000
@<TRIPOS>BOND
     1     1     2 1   
     2     1     3 1   
     3     1    29 1   
     4     1    30 1   
     5     2    23 1   
     6     2    31 1   
     7     2    32 1   
     8     3     4 2   
     9     3     5 1   
    10     5     6 1   
    11     5    33 1   
    12     6     7 1   
    13     6     9 1   
    14     6    34 1   
    15     7     8 1   
    16     7    35 1   
    17     7    36 1   
    18     8    37 1   
    19     9    10 2   
    20     9    11 1   
    21    11    12 1   
    22    11    38 1   
    23    12    13 1   
    24    12    19 1   
    25    12    39 1   
    26    13    14 1   
    27    13    18 1   
    28    13    40 1   
    29    14    15 1   
    30    14    16 1   
    31    14    17 1   
    32    15    41 1   
    33    15    42 1   
    34    15    43 1   
    35    16    44 1   
    36    17    28 1   
    37    17    45 1   
    38    17    46 1   
    39    18    47 1   
    40    19    20 1   
    41    19    48 1   
    42    19    49 1   
    43    20    21 1   
    44    20    22 1   
    45    20    50 1   
    46    21    51 1   
    47    21    52 1   
    48    21    53 1   
    49    22    54 1   
    50    22    55 1   
    51    22    56 1   
    52    23    24 1   
    53    23    57 1   
    54    23    58 1   
    55    24    25 1   
    56    24    59 1   
    57    24    60 1   
    58    25    26 1   
    59    25    27 1   
    60    25    61 1   
    61    26    62 1   
    62    26    63 1   
    63    26    64 1   
    64    27    65 1   
    65    27    66 1   
    66    27    67 1   
    67    28    68 1   
@<TRIPOS>SUBSTRUCTURE
     1 6VC         1 TEMP              0 ****  ****    0 ROOT
