@<TRIPOS>MOLECULE
6VD
   24    25     1     0     0
SMALL
abcg2


@<TRIPOS>ATOM
      1 C1          -3.2240    -0.5480     0.1330 ca         1 6VD      -0.127000
      2 C2          -2.6370    -1.8170    -0.0380 ca         1 6VD      -0.090000
      3 C3          -2.4410     0.5740     0.1750 ca         1 6VD      -0.065000
      4 C4          -1.2800    -1.9430    -0.1640 ca         1 6VD      -0.098000
      5 C5          -1.0390     0.4670     0.0470 ca         1 6VD      -0.111000
      6 C6          -0.4410    -0.8060    -0.1240 ca         1 6VD       0.303000
      7 C7           1.1870     1.3780    -0.0450 ca         1 6VD      -0.284000
      8 C8          -0.1640     1.5860     0.0820 ca         1 6VD       0.194100
      9 C9           1.6750     0.0660    -0.2090 ca         1 6VD       0.408300
     10 C10          3.6930    -1.1870     0.6480 c3         1 6VD      -0.082100
     11 C11          3.1550    -0.1660    -0.3490 c3         1 6VD      -0.128700
     12 N12          0.8940    -0.9860    -0.2510 nb         1 6VD      -0.695000
     13 O13         -0.7180     2.7890     0.2390 oh         1 6VD      -0.523100
     14 H1          -4.2980    -0.4630     0.2310 ha         1 6VD       0.115000
     15 H2          -3.2680    -2.6970    -0.0700 ha         1 6VD       0.115000
     16 H3          -2.8980     1.5450     0.3090 ha         1 6VD       0.126000
     17 H4          -0.8200    -2.9140    -0.2980 ha         1 6VD       0.130000
     18 H7           1.8800     2.2100    -0.0180 ha         1 6VD       0.121000
     19 H13         -0.0440     3.4790     0.2360 ho         1 6VD       0.472000
     20 H111         3.3570    -0.5120    -1.3670 hc         1 6VD       0.049700
     21 H112         3.6860     0.7800    -0.2360 hc         1 6VD       0.049700
     22 H101         3.5310    -0.8580     1.6760 hc         1 6VD       0.039367
     23 H102         3.2050    -2.1520     0.5240 hc         1 6VD       0.039367
     24 H103         4.7650    -1.3280     0.5080 hc         1 6VD       0.039367
@<TRIPOS>BOND
     1     1     2 ar  
     2     1     3 ar  
     3     1    14 1   
     4     2     4 ar  
     5     2    15 1   
     6     3     5 ar  
     7     3    16 1   
     8     4     6 ar  
     9     4    17 1   
    10     5     6 ar  
    11     5     8 ar  
    12     6    12 ar  
    13     7     8 ar  
    14     7     9 ar  
    15     7    18 1   
    16     8    13 1   
    17     9    11 1   
    18     9    12 ar  
    19    10    11 1   
    20    10    22 1   
    21    10    23 1   
    22    10    24 1   
    23    11    20 1   
    24    11    21 1   
    25    13    19 1   
@<TRIPOS>SUBSTRUCTURE
     1 6VD         1 TEMP              0 ****  ****    0 ROOT
