@<TRIPOS>MOLECULE
6VD
   24    25     1     0     0
SMALL
No Charge or Current Charge


@<TRIPOS>ATOM
      1 C1          -3.3250    -0.5100     0.0920 ca         1 6VD      -0.127000
      2 C2          -2.8380    -1.7700    -0.2860 ca         1 6VD      -0.090000
      3 C3          -2.4340     0.5580     0.2830 ca         1 6VD      -0.065000
      4 C4          -1.4580    -1.9600    -0.4730 ca         1 6VD      -0.098000
      5 C5          -1.0460     0.3680     0.0950 ca         1 6VD      -0.111000
      6 C6          -0.5470    -0.9030    -0.2880 ca         1 6VD       0.303000
      7 C7           1.2320     1.1740     0.0790 ca         1 6VD      -0.284000
      8 C8          -0.1270     1.4200     0.2790 ca         1 6VD       0.194100
      9 C9           1.6420    -0.1100    -0.2990 ca         1 6VD       0.408300
     10 C10          3.8780    -0.6590     0.7990 c3         1 6VD      -0.082100
     11 C11          3.1150    -0.4240    -0.5210 c3         1 6VD      -0.128700
     12 N12          0.7730    -1.1270    -0.4780 nb         1 6VD      -0.695000
     13 O13         -0.5340     2.6700     0.6470 oh         1 6VD      -0.523100
     14 H1          -4.3920    -0.3600     0.2380 ha         1 6VD       0.115000
     15 H2          -3.5270    -2.5990    -0.4340 ha         1 6VD       0.115000
     16 H3          -2.8280     1.5290     0.5760 ha         1 6VD       0.126000
     17 H4          -1.0870    -2.9380    -0.7660 ha         1 6VD       0.130000
     18 H7           1.9710     1.9590     0.2130 ha         1 6VD       0.121000
     19 H13          0.2580     3.2420     0.7170 ho         1 6VD       0.472000
     20 H111         3.2280    -1.3090    -1.1590 hc         1 6VD       0.049700
     21 H112         3.5900     0.4030    -1.0620 hc         1 6VD       0.049700
     22 H101         3.8300     0.2300     1.4400 hc         1 6VD       0.039367
     23 H102         3.4480    -1.5050     1.3490 hc         1 6VD       0.039367
     24 H103         4.9330    -0.8810     0.5980 hc         1 6VD       0.039367
@<TRIPOS>BOND
     1     1     2 ar  
     2     1     3 ar  
     3     1    14 1   
     4     2     4 ar  
     5     2    15 1   
     6     3     5 ar  
     7     3    16 1   
     8     4     6 ar  
     9     4    17 1   
    10     5     6 ar  
    11     5     8 ar  
    12     6    12 ar  
    13     7     8 ar  
    14     7     9 ar  
    15     7    18 1   
    16     8    13 1   
    17     9    11 1   
    18     9    12 ar  
    19    10    11 1   
    20    10    22 1   
    21    10    23 1   
    22    10    24 1   
    23    11    20 1   
    24    11    21 1   
    25    13    19 1   
@<TRIPOS>SUBSTRUCTURE
     1 6VD         1 TEMP              0 ****  ****    0 ROOT
