@<TRIPOS>MOLECULE
6VF
   29    29     1     0     0
SMALL
No Charge or Current Charge


@<TRIPOS>ATOM
      1 C2          -1.0610    -0.0460     0.6230 ca         1 6VF      -0.126300
      2 C4          -1.6470     1.1170     0.0840 ca         1 6VF      -0.072000
      3 C12         -3.1780    -1.2230     0.3320 ca         1 6VF      -0.172500
      4 C20          0.3990    -0.0310     1.0740 c3         1 6VF      -0.059100
      5 C21         -1.8350    -1.2170     0.7480 ca         1 6VF      -0.072000
      6 C22          3.8410     0.7150    -0.6760 c3         1 6VF       0.129600
      7 C1           2.8880     0.0750     0.3790 c3         1 6VF       0.179300
      8 O2           3.2450    -1.2970     0.6020 oh         1 6VF      -0.648000
      9 C3           1.4050     0.0410    -0.1040 c3         1 6VF       0.129500
     10 N4           1.1780    -1.1220    -1.0120 n8         1 6VF      -1.005200
     11 C7          -2.9910     1.1070    -0.3300 ca         1 6VF      -0.172500
     12 C10         -3.7550    -0.0640    -0.2060 ca         1 6VF       0.139100
     13 O1          -5.0580    -0.0810    -0.6050 oh         1 6VF      -0.533100
     14 H1          -1.0610     2.0290    -0.0130 ha         1 6VF       0.112500
     15 H2          -3.7710    -2.1300     0.4290 ha         1 6VF       0.122000
     16 H3           0.5650     0.8320     1.7300 hc         1 6VF       0.060700
     17 H4           0.6190    -0.9160     1.6840 hc         1 6VF       0.060700
     18 H5          -1.3980    -2.1220     1.1640 ha         1 6VF       0.112500
     19 H6           3.8180     0.1150    -1.5960 h1         1 6VF       0.029700
     20 H7           3.4630     1.7150    -0.9290 h1         1 6VF       0.029700
     21 H8           2.9580     0.6630     1.3060 h1         1 6VF       0.078700
     22 H9           2.5670    -1.7460     0.0340 ho         1 6VF       0.444000
     23 H10          1.1880     0.9660    -0.6600 h1         1 6VF       0.058700
     24 H11          0.1640    -1.2830    -1.0670 hn         1 6VF       0.399500
     25 H12          1.4200    -0.8540    -1.9740 hn         1 6VF       0.399500
     26 H14         -3.4290     2.0120    -0.7450 ha         1 6VF       0.122000
     27 H15         -5.2880     0.8070    -0.9510 ho         1 6VF       0.465000
     28 H16          5.7430     1.1650    -0.9180 ho         1 6VF       0.442000
     29 O3           5.1910     0.8180    -0.1820 oh         1 6VF      -0.653000
@<TRIPOS>BOND
     1     1     2 ar  
     2     1     4 1   
     3     1     5 ar  
     4     2    11 ar  
     5     2    14 1   
     6     3     5 ar  
     7     3    12 ar  
     8     3    15 1   
     9     4     9 1   
    10     4    16 1   
    11     4    17 1   
    12     5    18 1   
    13     6     7 1   
    14     6    19 1   
    15     6    20 1   
    16     6    29 1   
    17     7     8 1   
    18     7     9 1   
    19     7    21 1   
    20     8    22 1   
    21     9    10 1   
    22     9    23 1   
    23    10    24 1   
    24    10    25 1   
    25    11    12 ar  
    26    11    26 1   
    27    12    13 1   
    28    13    27 1   
    29    28    29 1   
@<TRIPOS>SUBSTRUCTURE
     1 6VF         1 TEMP              0 ****  ****    0 ROOT
