@<TRIPOS>MOLECULE
6VF
   29    29     1     0     0
SMALL
bcc


@<TRIPOS>ATOM
      1 C2          -1.0560     0.0110     0.6170 ca         1 6VF      -0.126300
      2 C4          -1.7020     1.2050     0.3050 ca         1 6VF      -0.090000
      3 C12         -3.0900    -1.1680     0.0060 ca         1 6VF      -0.190500
      4 C20          0.3810     0.0050     1.0540 c3         1 6VF      -0.059100
      5 C21         -1.7780    -1.1700     0.4560 ca         1 6VF      -0.090000
      6 C22          3.7410     0.5500    -0.7770 c3         1 6VF       0.106400
      7 C1           2.8070     0.1480     0.3530 c3         1 6VF       0.156100
      8 O2           3.2170    -1.0500     0.9790 oh         1 6VF      -0.585800
      9 C3           1.3550     0.0700    -0.1340 c3         1 6VF       0.129500
     10 N4           1.2080    -1.0260    -1.0800 n8         1 6VF      -0.894800
     11 C7          -3.0130     1.2280    -0.1460 ca         1 6VF      -0.190500
     12 C10         -3.7170     0.0360    -0.3010 ca         1 6VF       0.139100
     13 O1          -4.9950    -0.0060    -0.7350 oh         1 6VF      -0.494100
     14 H1          -1.1740     2.1450     0.4210 ha         1 6VF       0.130500
     15 H2          -3.6300    -2.1000    -0.1090 ha         1 6VF       0.140000
     16 H3           0.5680     0.8560     1.7170 hc         1 6VF       0.060700
     17 H4           0.5910    -0.8960     1.6370 hc         1 6VF       0.060700
     18 H5          -1.3130    -2.1190     0.6970 ha         1 6VF       0.130500
     19 H6           3.7110    -0.2160    -1.5620 h1         1 6VF       0.029700
     20 H7           3.3590     1.4770    -1.2260 h1         1 6VF       0.029700
     21 H8           2.8590     0.9210     1.1280 h1         1 6VF       0.078700
     22 H9           3.3580    -1.7150     0.2970 ho         1 6VF       0.405000
     23 H10          1.1520     0.9980    -0.6790 h1         1 6VF       0.058700
     24 H11          1.1490    -1.9060    -0.5790 hn         1 6VF       0.344300
     25 H12          0.3260    -0.9390    -1.5680 hn         1 6VF       0.344300
     26 H14         -3.4870     2.1760    -0.3750 ha         1 6VF       0.140000
     27 H15         -5.3170     0.8840    -0.9150 ho         1 6VF       0.426000
     28 H16          5.6260     0.9230    -0.9990 ho         1 6VF       0.403000
     29 O3           5.0420     0.7210    -0.2630 oh         1 6VF      -0.590800
@<TRIPOS>BOND
     1     1     2 ar  
     2     1     4 1   
     3     1     5 ar  
     4     2    11 ar  
     5     2    14 1   
     6     3     5 ar  
     7     3    12 ar  
     8     3    15 1   
     9     4     9 1   
    10     4    16 1   
    11     4    17 1   
    12     5    18 1   
    13     6     7 1   
    14     6    19 1   
    15     6    20 1   
    16     6    29 1   
    17     7     8 1   
    18     7     9 1   
    19     7    21 1   
    20     8    22 1   
    21     9    10 1   
    22     9    23 1   
    23    10    24 1   
    24    10    25 1   
    25    11    12 ar  
    26    11    26 1   
    27    12    13 1   
    28    13    27 1   
    29    28    29 1   
@<TRIPOS>SUBSTRUCTURE
     1 6VF         1 TEMP              0 ****  ****    0 ROOT
