@<TRIPOS>MOLECULE
6VH
   82    84     1     0     0
SMALL
No Charge or Current Charge


@<TRIPOS>ATOM
      1 C1           7.8040     1.9040    -1.0930 c6         1 6VH       0.211500
      2 F1          -7.2610    -0.2190    -0.1170 f          1 6VH      -0.096333
      3 O1           6.9160     2.8010    -0.4230 oh         1 6VH      -0.655000
      4 C2           9.1230     1.7420    -0.3000 c6         1 6VH      -0.065400
      5 F2          -8.1430     1.5990     0.6970 f          1 6VH      -0.096333
      6 O2          10.1720     0.7740     1.6800 oh         1 6VH      -0.661000
      7 C3           8.9150     0.9560     1.0170 c6         1 6VH       0.176300
      8 F3          -6.2680     0.8340     1.5150 f          1 6VH      -0.096333
      9 O3          -6.9300     1.9770    -1.9020 oh         1 6VH      -0.615000
     10 C4           8.2600    -0.4190     0.7330 c6         1 6VH      -0.075200
     11 F4          -6.9330     4.0220     0.1460 f          1 6VH      -0.096333
     12 O4          -3.6250    -5.5750     1.2520 oh         1 6VH      -0.650000
     13 C5           6.9510    -0.2530    -0.0510 ce         1 6VH      -0.063200
     14 F5          -5.1370     4.0350    -1.0870 f          1 6VH      -0.096333
     15 C6           5.8010    -0.8630     0.3660 cf         1 6VH      -0.166000
     16 F6          -5.0460     3.2800     0.9580 f          1 6VH      -0.096333
     17 C7           4.4930    -0.7630    -0.2860 cf         1 6VH      -0.188000
     18 C8           3.3690    -1.4850    -0.0100 c2         1 6VH      -0.080400
     19 C9           3.3020    -2.6100     1.0310 c6         1 6VH      -0.042200
     20 C10          7.1030     0.5500    -1.2800 ce         1 6VH      -0.125200
     21 C11          2.1080    -2.4310     2.0030 c6         1 6VH      -0.071400
     22 C12          0.7740    -2.1540     1.2550 c6         1 6VH      -0.064400
     23 C13          0.8910    -0.9610     0.2480 c5         1 6VH      -0.034000
     24 C14          2.0380    -1.3100    -0.7640 c5         1 6VH      -0.035500
     25 C15          1.9560    -0.1350    -1.7710 c5         1 6VH      -0.070400
     26 C16          0.4160     0.0230    -1.9640 c5         1 6VH      -0.080400
     27 C17         -0.2720    -0.8250    -0.8200 c5         1 6VH      -0.057700
     28 C18          1.1090     0.3600     1.0660 c3         1 6VH      -0.081100
     29 C20         -1.6750    -0.2390    -0.3910 c3         1 6VH      -0.037700
     30 C21         -2.6550    -0.1610    -1.6110 c3         1 6VH      -0.016300
     31 C22         -3.9000     0.5710    -1.3400 c1         1 6VH       0.008900
     32 C23         -4.9210     1.1610    -1.0720 c1         1 6VH      -0.263100
     33 C24         -6.1580     1.8680    -0.6900 c3         1 6VH       0.167100
     34 C25         -5.8160     3.3180    -0.1570 c3         1 6VH       0.309000
     35 C26         -6.9670     1.0130     0.3680 c3         1 6VH       0.309000
     36 C27         -2.3530    -0.9410     0.8310 c3         1 6VH       0.004700
     37 C28         -2.5690    -2.3840     0.6480 c1         1 6VH      -0.120100
     38 C29         -2.6990    -3.5730     0.4730 c1         1 6VH      -0.178100
     39 C30         -2.8070    -5.0160     0.2320 c3         1 6VH       0.275100
     40 C31         -1.4150    -5.6780     0.3130 c3         1 6VH      -0.098100
     41 C32         -3.4810    -5.2850    -1.1310 c3         1 6VH      -0.098100
     42 C33          6.7030     0.1210    -2.4980 c2         1 6VH      -0.296000
     43 H1           8.0540     2.3150    -2.0830 h1         1 6VH       0.037700
     44 H2           6.0290     2.6270    -0.8050 ho         1 6VH       0.443000
     45 H3           9.8530     1.2150    -0.9290 hc         1 6VH       0.062700
     46 H4           9.5540     2.7300    -0.0870 hc         1 6VH       0.062700
     47 H5           9.9770     0.3380     2.5390 ho         1 6VH       0.442000
     48 H6           8.2350     1.5350     1.6610 h1         1 6VH       0.050700
     49 H7          -6.2820     1.9770    -2.6400 ho         1 6VH       0.484000
     50 H8           8.9480    -1.0490     0.1530 hc         1 6VH       0.052200
     51 H9           8.0810    -0.9450     1.6800 hc         1 6VH       0.052200
     52 H10         -4.3110    -4.9000     1.4410 ho         1 6VH       0.448000
     53 H12          5.8650    -1.4490     1.2810 ha         1 6VH       0.170000
     54 H14          4.4450    -0.0160    -1.0760 ha         1 6VH       0.173000
     55 H17          3.1880    -3.5660     0.5020 hc         1 6VH       0.047200
     56 H18          4.2210    -2.7100     1.6160 hc         1 6VH       0.047200
     57 H20          2.0010    -3.3320     2.6220 hc         1 6VH       0.043200
     58 H21          2.3240    -1.6130     2.7020 hc         1 6VH       0.043200
     59 H22          0.4690    -3.0630     0.7170 hc         1 6VH       0.044700
     60 H23          0.0010    -1.9670     2.0070 hc         1 6VH       0.044700
     61 H24          1.8210    -2.2500    -1.2890 hc         1 6VH       0.053700
     62 H25          2.3890     0.7920    -1.3800 hc         1 6VH       0.046700
     63 H26          2.4720    -0.3600    -2.7120 hc         1 6VH       0.046700
     64 H27          0.1390     1.0820    -1.9140 hc         1 6VH       0.040200
     65 H28          0.1060    -0.3330    -2.9530 hc         1 6VH       0.040200
     66 H29         -0.4930    -1.8220    -1.2230 hc         1 6VH       0.054700
     67 H30          2.0910     0.3890     1.5500 hc         1 6VH       0.036033
     68 H31          1.0350     1.2590     0.4460 hc         1 6VH       0.036033
     69 H32          0.3540     0.4650     1.8540 hc         1 6VH       0.036033
     70 H33         -1.5030     0.7970    -0.0740 hc         1 6VH       0.062700
     71 H34         -2.1730     0.3390    -2.4580 hc         1 6VH       0.074700
     72 H35         -2.9070    -1.1720    -1.9540 hc         1 6VH       0.074700
     73 H36         -1.7590    -0.7710     1.7330 hc         1 6VH       0.068700
     74 H37         -3.3190    -0.4750     1.0550 hc         1 6VH       0.068700
     75 H40         -1.4900    -6.7610     0.1610 hc         1 6VH       0.046533
     76 H41         -0.7450    -5.2730    -0.4560 hc         1 6VH       0.046533
     77 H42         -0.9520    -5.5030     1.2920 hc         1 6VH       0.046533
     78 H43         -4.4780    -4.8310    -1.1760 hc         1 6VH       0.046533
     79 H44         -2.8810    -4.8690    -1.9500 hc         1 6VH       0.046533
     80 H45         -3.5890    -6.3620    -1.3050 hc         1 6VH       0.046533
     81 H46          6.2310    -0.8530    -2.6340 ha         1 6VH       0.168500
     82 H47          6.8410     0.7230    -3.3970 ha         1 6VH       0.168500
@<TRIPOS>BOND
     1     1     3 1   
     2     1     4 1   
     3     1    20 1   
     4     1    43 1   
     5     2    35 1   
     6     3    44 1   
     7     4     7 1   
     8     4    45 1   
     9     4    46 1   
    10     5    35 1   
    11     6     7 1   
    12     6    47 1   
    13     7    10 1   
    14     7    48 1   
    15     8    35 1   
    16     9    33 1   
    17     9    49 1   
    18    10    13 1   
    19    10    50 1   
    20    10    51 1   
    21    11    34 1   
    22    12    39 1   
    23    12    52 1   
    24    13    15 2   
    25    13    20 1   
    26    14    34 1   
    27    15    17 1   
    28    15    53 1   
    29    16    34 1   
    30    17    18 2   
    31    17    54 1   
    32    18    19 1   
    33    18    24 1   
    34    19    21 1   
    35    19    55 1   
    36    19    56 1   
    37    20    42 2   
    38    21    22 1   
    39    21    57 1   
    40    21    58 1   
    41    22    23 1   
    42    22    59 1   
    43    22    60 1   
    44    23    24 1   
    45    23    27 1   
    46    23    28 1   
    47    24    25 1   
    48    24    61 1   
    49    25    26 1   
    50    25    62 1   
    51    25    63 1   
    52    26    27 1   
    53    26    64 1   
    54    26    65 1   
    55    27    29 1   
    56    27    66 1   
    57    28    67 1   
    58    28    68 1   
    59    28    69 1   
    60    29    30 1   
    61    29    36 1   
    62    29    70 1   
    63    30    31 1   
    64    30    71 1   
    65    30    72 1   
    66    31    32 3   
    67    32    33 1   
    68    33    34 1   
    69    33    35 1   
    70    36    37 1   
    71    36    73 1   
    72    36    74 1   
    73    37    38 3   
    74    38    39 1   
    75    39    40 1   
    76    39    41 1   
    77    40    75 1   
    78    40    76 1   
    79    40    77 1   
    80    41    78 1   
    81    41    79 1   
    82    41    80 1   
    83    42    81 1   
    84    42    82 1   
@<TRIPOS>SUBSTRUCTURE
     1 6VH         1 TEMP              0 ****  ****    0 ROOT
