@<TRIPOS>MOLECULE
6VH
   82    84     1     0     0
SMALL
abcg2


@<TRIPOS>ATOM
      1 C1           7.6770     2.0480    -0.8890 c6         1 6VH       0.211500
      2 F1          -6.8790    -0.2690     0.2410 f          1 6VH      -0.096333
      3 O1           6.7730     2.8120    -0.1120 oh         1 6VH      -0.655000
      4 C2           8.9580     1.8930    -0.0800 c6         1 6VH      -0.065400
      5 F2          -7.7660     1.5720     0.8990 f          1 6VH      -0.096333
      6 O2          10.0010     0.9200     1.8110 oh         1 6VH      -0.661000
      7 C3           8.7530     1.0320     1.1570 c6         1 6VH       0.176300
      8 F3          -5.8130     1.0050     1.6070 f          1 6VH      -0.096333
      9 O3          -6.9320     1.6630    -1.6740 oh         1 6VH      -0.615000
     10 C4           8.2030    -0.3380     0.7550 c6         1 6VH      -0.075200
     11 F4          -6.6910     3.8990    -0.0680 f          1 6VH      -0.096333
     12 O4          -3.5850    -5.4500     1.4750 oh         1 6VH      -0.650000
     13 C5           6.9420    -0.2080    -0.0580 ce         1 6VH      -0.063200
     14 F5          -5.0840     3.7190    -1.4830 f          1 6VH      -0.096333
     15 C6           5.8170    -0.8590     0.2860 cf         1 6VH      -0.166000
     16 F6          -4.7300     3.3080     0.6000 f          1 6VH      -0.096333
     17 C7           4.5270    -0.7690    -0.3700 cf         1 6VH      -0.188000
     18 C8           3.4470    -1.5130    -0.0840 c2         1 6VH      -0.080400
     19 C9           3.3920    -2.6130     0.9400 c6         1 6VH      -0.042200
     20 C10          7.0790     0.6970    -1.2140 ce         1 6VH      -0.125200
     21 C11          2.2070    -2.4460     1.8970 c6         1 6VH      -0.071400
     22 C12          0.8810    -2.2170     1.1730 c6         1 6VH      -0.064400
     23 C13          0.9650    -1.0550     0.1800 c5         1 6VH      -0.034000
     24 C14          2.1370    -1.3570    -0.7900 c5         1 6VH      -0.035500
     25 C15          1.9700    -0.3390    -1.9050 c5         1 6VH      -0.070400
     26 C16          0.4420    -0.2200    -2.0550 c5         1 6VH      -0.080400
     27 C17         -0.1940    -0.9490    -0.8400 c5         1 6VH      -0.057700
     28 C18          1.1810     0.2720     0.9110 c3         1 6VH      -0.081100
     29 C20         -1.4950    -0.2710    -0.4000 c3         1 6VH      -0.037700
     30 C21         -2.4930    -0.2960    -1.5740 c3         1 6VH      -0.016300
     31 C22         -3.7290     0.4050    -1.2780 c1         1 6VH       0.008900
     32 C23         -4.7390     0.9920    -0.9990 c1         1 6VH      -0.263100
     33 C24         -5.9700     1.6990    -0.6700 c3         1 6VH       0.167100
     34 C25         -5.6160     3.1810    -0.3850 c3         1 6VH       0.309000
     35 C26         -6.6180     0.9970     0.5480 c3         1 6VH       0.309000
     36 C27         -2.1420    -0.8760     0.8560 c3         1 6VH       0.004700
     37 C28         -2.4980    -2.2790     0.6920 c1         1 6VH      -0.120100
     38 C29         -2.7680    -3.4390     0.5200 c1         1 6VH      -0.178100
     39 C30         -3.0710    -4.8630     0.2890 c3         1 6VH       0.275100
     40 C31         -1.7770    -5.6040    -0.0350 c3         1 6VH      -0.098100
     41 C32         -4.0750    -4.9920    -0.8570 c3         1 6VH      -0.098100
     42 C33          6.7440     0.3710    -2.4610 c2         1 6VH      -0.296000
     43 H1           7.9140     2.5640    -1.8290 h1         1 6VH       0.037700
     44 H2           5.9330     2.8480    -0.5810 ho         1 6VH       0.443000
     45 H3           9.7130     1.4260    -0.7210 hc         1 6VH       0.062700
     46 H4           9.3380     2.8800     0.1980 hc         1 6VH       0.062700
     47 H5           9.8670     0.4370     2.6320 ho         1 6VH       0.442000
     48 H6           8.0200     1.5180     1.8150 h1         1 6VH       0.050700
     49 H7          -6.5100     1.5530    -2.5340 ho         1 6VH       0.484000
     50 H8           8.9700    -0.8460     0.1580 hc         1 6VH       0.052200
     51 H9           8.0220    -0.9510     1.6420 hc         1 6VH       0.052200
     52 H10         -4.4380    -5.0440     1.6670 ho         1 6VH       0.448000
     53 H12          5.8820    -1.4970     1.1620 ha         1 6VH       0.170000
     54 H14          4.4430    -0.0300    -1.1580 ha         1 6VH       0.173000
     55 H17          3.2800    -3.5660     0.4080 hc         1 6VH       0.047200
     56 H18          4.3160    -2.6910     1.5130 hc         1 6VH       0.047200
     57 H20          2.1280    -3.3350     2.5260 hc         1 6VH       0.043200
     58 H21          2.4080    -1.6130     2.5760 hc         1 6VH       0.043200
     59 H22          0.5960    -3.1250     0.6300 hc         1 6VH       0.044700
     60 H23          0.1020    -2.0550     1.9200 hc         1 6VH       0.044700
     61 H24          1.9020    -2.3450    -1.2160 hc         1 6VH       0.053700
     62 H25          2.4090     0.6230    -1.6290 hc         1 6VH       0.046700
     63 H26          2.4590    -0.6550    -2.8280 hc         1 6VH       0.046700
     64 H27          0.1390     0.8300    -2.0810 hc         1 6VH       0.040200
     65 H28          0.1040    -0.6620    -2.9930 hc         1 6VH       0.040200
     66 H29         -0.4390    -1.9760    -1.1400 hc         1 6VH       0.054700
     67 H30          2.1260     0.2840     1.4540 hc         1 6VH       0.036033
     68 H31          1.1930     1.1250     0.2310 hc         1 6VH       0.036033
     69 H32          0.3890     0.4520     1.6410 hc         1 6VH       0.036033
     70 H33         -1.2810     0.7770    -0.1680 hc         1 6VH       0.062700
     71 H34         -2.0470     0.1590    -2.4610 hc         1 6VH       0.074700
     72 H35         -2.7260    -1.3320    -1.8380 hc         1 6VH       0.074700
     73 H36         -1.4670    -0.7640     1.7060 hc         1 6VH       0.068700
     74 H37         -3.0370    -0.3020     1.1140 hc         1 6VH       0.068700
     75 H40         -1.9820    -6.6620    -0.2100 hc         1 6VH       0.046533
     76 H41         -1.3200    -5.1930    -0.9340 hc         1 6VH       0.046533
     77 H42         -1.0600    -5.5170     0.7810 hc         1 6VH       0.046533
     78 H43         -5.0140    -4.4950    -0.6050 hc         1 6VH       0.046533
     79 H44         -3.6880    -4.5370    -1.7680 hc         1 6VH       0.046533
     80 H45         -4.2820    -6.0440    -1.0580 hc         1 6VH       0.046533
     81 H46          6.3360    -0.6010    -2.7090 ha         1 6VH       0.168500
     82 H47          6.8820     1.0670    -3.2810 ha         1 6VH       0.168500
@<TRIPOS>BOND
     1     1     3 1   
     2     1     4 1   
     3     1    20 1   
     4     1    43 1   
     5     2    35 1   
     6     3    44 1   
     7     4     7 1   
     8     4    45 1   
     9     4    46 1   
    10     5    35 1   
    11     6     7 1   
    12     6    47 1   
    13     7    10 1   
    14     7    48 1   
    15     8    35 1   
    16     9    33 1   
    17     9    49 1   
    18    10    13 1   
    19    10    50 1   
    20    10    51 1   
    21    11    34 1   
    22    12    39 1   
    23    12    52 1   
    24    13    15 2   
    25    13    20 1   
    26    14    34 1   
    27    15    17 1   
    28    15    53 1   
    29    16    34 1   
    30    17    18 2   
    31    17    54 1   
    32    18    19 1   
    33    18    24 1   
    34    19    21 1   
    35    19    55 1   
    36    19    56 1   
    37    20    42 2   
    38    21    22 1   
    39    21    57 1   
    40    21    58 1   
    41    22    23 1   
    42    22    59 1   
    43    22    60 1   
    44    23    24 1   
    45    23    27 1   
    46    23    28 1   
    47    24    25 1   
    48    24    61 1   
    49    25    26 1   
    50    25    62 1   
    51    25    63 1   
    52    26    27 1   
    53    26    64 1   
    54    26    65 1   
    55    27    29 1   
    56    27    66 1   
    57    28    67 1   
    58    28    68 1   
    59    28    69 1   
    60    29    30 1   
    61    29    36 1   
    62    29    70 1   
    63    30    31 1   
    64    30    71 1   
    65    30    72 1   
    66    31    32 3   
    67    32    33 1   
    68    33    34 1   
    69    33    35 1   
    70    36    37 1   
    71    36    73 1   
    72    36    74 1   
    73    37    38 3   
    74    38    39 1   
    75    39    40 1   
    76    39    41 1   
    77    40    75 1   
    78    40    76 1   
    79    40    77 1   
    80    41    78 1   
    81    41    79 1   
    82    41    80 1   
    83    42    81 1   
    84    42    82 1   
@<TRIPOS>SUBSTRUCTURE
     1 6VH         1 TEMP              0 ****  ****    0 ROOT
