@<TRIPOS>MOLECULE
6VJ
   75    80     1     0     0
SMALL
abcg2


@<TRIPOS>ATOM
      1 O5           6.0850     0.5100     1.5880 o          1 6VJ      -0.703867
      2 S1           6.5280     0.0540     0.2580 s6         1 6VJ       1.270100
      3 O6           7.3450     1.0560    -0.4520 o          1 6VJ      -0.703867
      4 O7           7.1410    -1.2870     0.2870 o          1 6VJ      -0.703867
      5 C17          5.0360    -0.1220    -0.7050 ca         1 6VJ      -0.259500
      6 C18          4.5630     0.9340    -1.4700 ca         1 6VJ       0.002500
      7 C19          3.3810     0.8210    -2.1860 ca         1 6VJ      -0.177800
      8 C25          2.6780    -0.3890    -2.1440 ca         1 6VJ       0.171600
      9 O4           1.5730    -0.4640    -2.9070 oh         1 6VJ      -0.583600
     10 C20          2.7960     2.0060    -2.9130 c3         1 6VJ       0.043700
     11 C21          1.5120     2.4220    -2.2240 ca         1 6VJ      -0.153300
     12 C22          1.5330     2.6320    -0.8560 ca         1 6VJ      -0.055500
     13 C23          0.3700     2.8230    -0.1170 cp         1 6VJ      -0.056000
     14 C28          0.4360     2.9860     1.3510 cp         1 6VJ      -0.039000
     15 C33         -0.2390     2.1060     2.1950 ca         1 6VJ      -0.087000
     16 C32         -0.1520     2.2420     3.5730 ca         1 6VJ      -0.100500
     17 C31          0.6050     3.2650     4.1270 ca         1 6VJ      -0.121000
     18 C30          1.2900     4.1430     3.2940 ca         1 6VJ      -0.100500
     19 C29          1.2100     4.0000     1.9170 ca         1 6VJ      -0.087000
     20 C24         -0.8400     2.7850    -0.7910 ca         1 6VJ      -0.055500
     21 C1          -0.9090     2.6180    -2.1730 ca         1 6VJ      -0.153300
     22 C            0.2840     2.4810    -2.8950 ca         1 6VJ       0.127100
     23 O            0.3180     2.3430    -4.2390 oh         1 6VJ      -0.548100
     24 C2          -2.2850     2.5150    -2.8060 c3         1 6VJ       0.043700
     25 C3          -3.1110     1.4610    -2.1140 ca         1 6VJ      -0.177800
     26 C27         -2.6740     0.1370    -2.0890 ca         1 6VJ       0.171600
     27 O12         -1.5670    -0.2520    -2.7730 oh         1 6VJ      -0.583600
     28 C4          -4.2860     1.7830    -1.4470 ca         1 6VJ       0.002500
     29 C16          4.2970    -1.2920    -0.6250 ca         1 6VJ       0.018500
     30 C15          3.1080    -1.4430    -1.3290 ca         1 6VJ      -0.168300
     31 C14          2.2990    -2.7110    -1.1780 c3         1 6VJ       0.039200
     32 C13          0.9680    -2.4770    -0.4910 ca         1 6VJ      -0.170300
     33 C26         -0.2380    -2.4860    -1.1980 ca         1 6VJ       0.141100
     34 O8          -0.1530    -2.7350    -2.5330 oh         1 6VJ      -0.589100
     35 C12          0.9380    -2.2120     0.8700 ca         1 6VJ       0.016000
     36 C11         -0.2620    -1.9610     1.5180 ca         1 6VJ      -0.258500
     37 S2          -0.2900    -1.7210     3.2890 s6         1 6VJ       1.257100
     38 O9          -1.5110    -0.9410     3.5680 o          1 6VJ      -0.696533
     39 O11         -0.3470    -3.0860     3.8480 o          1 6VJ      -0.696533
     40 O10          0.9610    -1.0200     3.6210 o          1 6VJ      -0.696533
     41 C10         -1.4460    -1.9830     0.8020 ca         1 6VJ       0.016000
     42 C9          -1.4590    -2.2490    -0.5610 ca         1 6VJ      -0.170300
     43 C8          -2.7930    -2.2390    -1.2790 c3         1 6VJ       0.039200
     44 C7          -3.3620    -0.8470    -1.3810 ca         1 6VJ      -0.168300
     45 C6          -4.5360    -0.4970    -0.7300 ca         1 6VJ       0.018500
     46 C5          -5.0040     0.8100    -0.7690 ca         1 6VJ      -0.259500
     47 S3          -6.5640     1.2060     0.0090 s6         1 6VJ       1.270100
     48 O15         -6.5600     2.6670     0.1980 o          1 6VJ      -0.703867
     49 O14         -7.5870     0.7470    -0.9470 o          1 6VJ      -0.703867
     50 O13         -6.5770     0.4510     1.2740 o          1 6VJ      -0.703867
     51 H1           5.1130     1.8660    -1.5120 ha         1 6VJ       0.119500
     52 H2           1.1930    -1.3560    -2.9280 ho         1 6VJ       0.487000
     53 H3           3.5180     2.8260    -2.8920 hc         1 6VJ       0.036950
     54 H4           2.6220     1.7750    -3.9630 hc         1 6VJ       0.036950
     55 H5           2.4820     2.5860    -0.3350 ha         1 6VJ       0.135000
     56 H6          -0.8090     1.2860     1.7740 ha         1 6VJ       0.117500
     57 H7          -0.6610     1.5280     4.2050 ha         1 6VJ       0.115500
     58 H8           0.6720     3.3740     5.2020 ha         1 6VJ       0.090000
     59 H9           1.8850     4.9420     3.7190 ha         1 6VJ       0.115500
     60 H10          1.7430     4.6900     1.2720 ha         1 6VJ       0.117500
     61 H11         -1.7640     2.8810    -0.2320 ha         1 6VJ       0.135000
     62 H12         -0.5550     2.4660    -4.6250 ho         1 6VJ       0.450000
     63 H13         -2.7980     3.4760    -2.7390 hc         1 6VJ       0.036950
     64 H14         -2.2420     2.2860    -3.8750 hc         1 6VJ       0.036950
     65 H15         -0.8130     0.3230    -2.5800 ho         1 6VJ       0.487000
     66 H16         -4.6300     2.8100    -1.4550 ha         1 6VJ       0.119500
     67 H17          4.6450    -2.1120    -0.0100 ha         1 6VJ       0.125500
     68 H18          2.1660    -3.2080    -2.1410 hc         1 6VJ       0.036450
     69 H19          2.8790    -3.4090    -0.5730 hc         1 6VJ       0.036450
     70 H20         -0.9220    -2.3680    -2.9880 ho         1 6VJ       0.474000
     71 H21          1.8700    -2.1850     1.4220 ha         1 6VJ       0.139000
     72 H22         -2.3860    -1.7780     1.3020 ha         1 6VJ       0.139000
     73 H23         -2.7350    -2.7060    -2.2650 hc         1 6VJ       0.036450
     74 H24         -3.4930    -2.8570    -0.7150 hc         1 6VJ       0.036450
     75 H25         -5.0700    -1.2530    -0.1670 ha         1 6VJ       0.125500
@<TRIPOS>BOND
     1     1     2 1   
     2     2     3 1   
     3     2     4 1   
     4     2     5 1   
     5     5     6 ar  
     6     5    29 ar  
     7     6     7 ar  
     8     6    51 1   
     9     7     8 ar  
    10     7    10 1   
    11     8     9 1   
    12     8    30 ar  
    13     9    52 1   
    14    10    11 1   
    15    10    53 1   
    16    10    54 1   
    17    11    12 ar  
    18    11    22 ar  
    19    12    13 ar  
    20    12    55 1   
    21    13    14 1   
    22    13    20 ar  
    23    14    15 ar  
    24    14    19 ar  
    25    15    16 ar  
    26    15    56 1   
    27    16    17 ar  
    28    16    57 1   
    29    17    18 ar  
    30    17    58 1   
    31    18    19 ar  
    32    18    59 1   
    33    19    60 1   
    34    20    21 ar  
    35    20    61 1   
    36    21    22 ar  
    37    21    24 1   
    38    22    23 1   
    39    23    62 1   
    40    24    25 1   
    41    24    63 1   
    42    24    64 1   
    43    25    26 ar  
    44    25    28 ar  
    45    26    27 1   
    46    26    44 ar  
    47    27    65 1   
    48    28    46 ar  
    49    28    66 1   
    50    29    30 ar  
    51    29    67 1   
    52    30    31 1   
    53    31    32 1   
    54    31    68 1   
    55    31    69 1   
    56    32    33 ar  
    57    32    35 ar  
    58    33    34 1   
    59    33    42 ar  
    60    34    70 1   
    61    35    36 ar  
    62    35    71 1   
    63    36    37 1   
    64    36    41 ar  
    65    37    38 1   
    66    37    39 1   
    67    37    40 1   
    68    41    42 ar  
    69    41    72 1   
    70    42    43 1   
    71    43    44 1   
    72    43    73 1   
    73    43    74 1   
    74    44    45 ar  
    75    45    46 ar  
    76    45    75 1   
    77    46    47 1   
    78    47    48 1   
    79    47    49 1   
    80    47    50 1   
@<TRIPOS>SUBSTRUCTURE
     1 6VJ         1 TEMP              0 ****  ****    0 ROOT
