@<TRIPOS>MOLECULE
6VJ
   75    80     1     0     0
SMALL
No Charge or Current Charge


@<TRIPOS>ATOM
      1 O5           4.3120     0.0040     2.6570 o          1 6VJ      -0.703867
      2 S1           5.3180    -0.2490     1.6150 s6         1 6VJ       1.270100
      3 O6           6.2050     0.8820     1.3000 o          1 6VJ      -0.703867
      4 O7           5.9440    -1.5790     1.6410 o          1 6VJ      -0.703867
      5 C17          4.2560    -0.3430     0.1040 ca         1 6VJ      -0.259500
      6 C18          3.9330     0.8270    -0.6090 ca         1 6VJ       0.002500
      7 C19          3.1250     0.7690    -1.7610 ca         1 6VJ      -0.177800
      8 C25          2.6400    -0.4820    -2.1990 ca         1 6VJ       0.171600
      9 O4           1.8730    -0.5510    -3.3220 oh         1 6VJ      -0.583600
     10 C20          2.7550     2.0730    -2.4740 c3         1 6VJ       0.043700
     11 C21          1.4480     2.6540    -1.9220 ca         1 6VJ      -0.153300
     12 C22          1.5050     3.4970    -0.7950 ca         1 6VJ      -0.055500
     13 C23          0.3340     4.0360    -0.2120 cp         1 6VJ      -0.056000
     14 C28          0.4100     4.9240     0.9920 cp         1 6VJ      -0.039000
     15 C33         -0.5750     4.8630     2.0110 ca         1 6VJ      -0.087000
     16 C32         -0.5030     5.6960     3.1410 ca         1 6VJ      -0.100500
     17 C31          0.5560     6.6090     3.2760 ca         1 6VJ      -0.121000
     18 C30          1.5420     6.6870     2.2800 ca         1 6VJ      -0.100500
     19 C29          1.4700     5.8530     1.1510 ca         1 6VJ      -0.087000
     20 C24         -0.9120     3.6970    -0.7910 ca         1 6VJ      -0.055500
     21 C1          -0.9970     2.8580    -1.9190 ca         1 6VJ      -0.153300
     22 C            0.1910     2.3490    -2.4880 ca         1 6VJ       0.127100
     23 O            0.1210     1.5340    -3.5770 oh         1 6VJ      -0.548100
     24 C2          -2.3810     2.4800    -2.4530 c3         1 6VJ       0.043700
     25 C3          -2.9260     1.2460    -1.7270 ca         1 6VJ      -0.177800
     26 C27         -2.6510    -0.0660    -2.1690 ca         1 6VJ       0.171600
     27 O12         -1.9180    -0.2530    -3.3000 oh         1 6VJ      -0.583600
     28 C4          -3.7040     1.4300    -0.5670 ca         1 6VJ       0.002500
     29 C16          3.7350    -1.5780    -0.3240 ca         1 6VJ       0.018500
     30 C15          2.9250    -1.6610    -1.4740 ca         1 6VJ      -0.168300
     31 C14          2.3670    -3.0270    -1.8890 c3         1 6VJ       0.039200
     32 C13          0.9990    -3.2880    -1.2500 ca         1 6VJ      -0.170300
     33 C26         -0.2040    -2.8910    -1.8730 ca         1 6VJ       0.141100
     34 O8          -0.1630    -2.3060    -3.1010 oh         1 6VJ      -0.589100
     35 C12          0.9450    -3.9120     0.0120 ca         1 6VJ       0.016000
     36 C11         -0.2880    -4.1290     0.6550 ca         1 6VJ      -0.258500
     37 S2          -0.3460    -4.9800     2.2950 s6         1 6VJ       1.257100
     38 O9          -1.5480    -4.3970     2.9080 o          1 6VJ      -0.696533
     39 O11         -0.4620    -6.3850     1.8780 o          1 6VJ      -0.696533
     40 O10          0.9430    -4.5970     2.8910 o          1 6VJ      -0.696533
     41 C10         -1.4780    -3.7060     0.0310 ca         1 6VJ       0.016000
     42 C9          -1.4470    -3.0800    -1.2310 ca         1 6VJ      -0.170300
     43 C8          -2.7690    -2.6180    -1.8580 c3         1 6VJ       0.039200
     44 C7          -3.1160    -1.1840    -1.4440 ca         1 6VJ      -0.168300
     45 C6          -3.8910    -0.9770    -0.2850 ca         1 6VJ       0.018500
     46 C5          -4.1930     0.3260     0.1560 ca         1 6VJ      -0.259500
     47 S3          -5.2310     0.6030     1.6620 s6         1 6VJ       1.270100
     48 O15         -4.5740     1.7670     2.2760 o          1 6VJ      -0.703867
     49 O14         -6.5450     0.8650     1.0550 o          1 6VJ      -0.703867
     50 O13         -5.1010    -0.6740     2.3800 o          1 6VJ      -0.703867
     51 H1           4.3040     1.7900    -0.2630 ha         1 6VJ       0.119500
     52 H2           1.3210    -1.3720    -3.2440 ho         1 6VJ       0.487000
     53 H3           3.5630     2.8040    -2.3430 hc         1 6VJ       0.036950
     54 H4           2.7010     1.9270    -3.5600 hc         1 6VJ       0.036950
     55 H5           2.4720     3.7190    -0.3500 ha         1 6VJ       0.135000
     56 H6          -1.3950     4.1540     1.9340 ha         1 6VJ       0.117500
     57 H7          -1.2660     5.6310     3.9130 ha         1 6VJ       0.115500
     58 H8           0.6110     7.2530     4.1500 ha         1 6VJ       0.090000
     59 H9           2.3620     7.3950     2.3810 ha         1 6VJ       0.115500
     60 H10          2.2370     5.9380     0.3850 ha         1 6VJ       0.117500
     61 H11         -1.8260     4.0930    -0.3570 ha         1 6VJ       0.135000
     62 H12          0.9480     0.9890    -3.5830 ho         1 6VJ       0.450000
     63 H13         -3.0690     3.3240    -2.3140 hc         1 6VJ       0.036950
     64 H14         -2.3610     2.3270    -3.5390 hc         1 6VJ       0.036950
     65 H15         -1.3950     0.5770    -3.4430 ho         1 6VJ       0.487000
     66 H16         -3.9270     2.4380    -0.2240 ha         1 6VJ       0.119500
     67 H17          3.9550    -2.4820     0.2400 ha         1 6VJ       0.125500
     68 H18          2.3170    -3.1180    -2.9810 hc         1 6VJ       0.036450
     69 H19          3.0680    -3.8160    -1.5880 hc         1 6VJ       0.036450
     70 H20         -0.9960    -1.7750    -3.1940 ho         1 6VJ       0.474000
     71 H21          1.8680    -4.2290     0.4930 ha         1 6VJ       0.139000
     72 H22         -2.4340    -3.8660     0.5270 ha         1 6VJ       0.139000
     73 H23         -2.7440    -2.7160    -2.9500 hc         1 6VJ       0.036450
     74 H24         -3.5760    -3.2930    -1.5480 hc         1 6VJ       0.036450
     75 H25         -4.2570    -1.8370     0.2720 ha         1 6VJ       0.125500
@<TRIPOS>BOND
     1     1     2 1   
     2     2     3 1   
     3     2     4 1   
     4     2     5 1   
     5     5     6 ar  
     6     5    29 ar  
     7     6     7 ar  
     8     6    51 1   
     9     7     8 ar  
    10     7    10 1   
    11     8     9 1   
    12     8    30 ar  
    13     9    52 1   
    14    10    11 1   
    15    10    53 1   
    16    10    54 1   
    17    11    12 ar  
    18    11    22 ar  
    19    12    13 ar  
    20    12    55 1   
    21    13    14 1   
    22    13    20 ar  
    23    14    15 ar  
    24    14    19 ar  
    25    15    16 ar  
    26    15    56 1   
    27    16    17 ar  
    28    16    57 1   
    29    17    18 ar  
    30    17    58 1   
    31    18    19 ar  
    32    18    59 1   
    33    19    60 1   
    34    20    21 ar  
    35    20    61 1   
    36    21    22 ar  
    37    21    24 1   
    38    22    23 1   
    39    23    62 1   
    40    24    25 1   
    41    24    63 1   
    42    24    64 1   
    43    25    26 ar  
    44    25    28 ar  
    45    26    27 1   
    46    26    44 ar  
    47    27    65 1   
    48    28    46 ar  
    49    28    66 1   
    50    29    30 ar  
    51    29    67 1   
    52    30    31 1   
    53    31    32 1   
    54    31    68 1   
    55    31    69 1   
    56    32    33 ar  
    57    32    35 ar  
    58    33    34 1   
    59    33    42 ar  
    60    34    70 1   
    61    35    36 ar  
    62    35    71 1   
    63    36    37 1   
    64    36    41 ar  
    65    37    38 1   
    66    37    39 1   
    67    37    40 1   
    68    41    42 ar  
    69    41    72 1   
    70    42    43 1   
    71    43    44 1   
    72    43    73 1   
    73    43    74 1   
    74    44    45 ar  
    75    45    46 ar  
    76    45    75 1   
    77    46    47 1   
    78    47    48 1   
    79    47    49 1   
    80    47    50 1   
@<TRIPOS>SUBSTRUCTURE
     1 6VJ         1 TEMP              0 ****  ****    0 ROOT
