@<TRIPOS>MOLECULE
6VK
   51    55     1     0     0
SMALL
abcg2


@<TRIPOS>ATOM
      1 O           -1.6440    -2.0740     1.1870 o          1 6VK      -0.545100
      2 C4          -2.0510    -1.0970     0.5690 c          1 6VK       0.593300
      3 C5          -1.2030     0.0450     0.2840 ce         1 6VK      -0.313400
      4 C6          -1.7450     1.1190    -0.3720 c2         1 6VK       0.203800
      5 C7          -3.1750     1.1790    -0.8200 c6         1 6VK      -0.053200
      6 C1          -4.1080     0.2890    -0.0070 c6         1 6VK      -0.032000
      7 C2          -5.4660     0.2150    -0.6990 c3         1 6VK      -0.086600
      8 C           -4.2960     0.8440     1.4060 c3         1 6VK      -0.086600
      9 C3          -3.4690    -1.0950     0.0380 c6         1 6VK      -0.176400
     10 C14          0.2500    -0.0060     0.7770 c6         1 6VK       0.175800
     11 C15          0.2830     0.0840     2.3120 c3         1 6VK      -0.078100
     12 C16          0.9400    -1.2590     0.2350 ca         1 6VK      -0.046300
     13 C17          0.9090    -1.5000    -1.1370 ca         1 6VK      -0.097000
     14 C18          1.5670    -2.5870    -1.6910 ca         1 6VK      -0.118000
     15 C19          2.2780    -3.4610    -0.8770 ca         1 6VK      -0.117000
     16 C20          2.3140    -3.2320     0.4900 ca         1 6VK      -0.118000
     17 C21          1.6500    -2.1410     1.0380 ca         1 6VK      -0.097000
     18 C13          0.9690     1.1940     0.2210 cc         1 6VK      -0.212300
     19 C9           2.2950     1.5930     0.2490 cd         1 6VK      -0.067300
     20 C10          3.4990     0.9660     0.8210 cx         1 6VK      -0.080400
     21 C11          4.8410     1.1690     0.1750 cx         1 6VK      -0.117900
     22 C12          4.1730    -0.1650     0.1030 cx         1 6VK      -0.117900
     23 N2           2.3320     2.7840    -0.3800 na         1 6VK      -0.002200
     24 N1           1.1420     3.2020    -0.8240 nd         1 6VK      -0.561800
     25 C8           0.3290     2.2360    -0.4530 cc         1 6VK       0.484900
     26 N           -1.0230     2.2130    -0.7030 nu         1 6VK      -0.776900
     27 H1          -3.5180     2.2180    -0.7890 hc         1 6VK       0.057700
     28 H2          -3.2090     0.8780    -1.8740 hc         1 6VK       0.057700
     29 H3          -5.3790    -0.1920    -1.7080 hc         1 6VK       0.038867
     30 H4          -6.1550    -0.4210    -0.1400 hc         1 6VK       0.038867
     31 H5          -5.9200     1.2060    -0.7780 hc         1 6VK       0.038867
     32 H6          -4.7500     1.8370     1.3730 hc         1 6VK       0.038867
     33 H7          -4.9560     0.1960     1.9850 hc         1 6VK       0.038867
     34 H8          -3.3550     0.9290     1.9510 hc         1 6VK       0.038867
     35 H9          -3.4350    -1.5080    -0.9780 hc         1 6VK       0.068200
     36 H10         -4.0660    -1.7860     0.6380 hc         1 6VK       0.068200
     37 H11         -0.2080    -0.7630     2.7850 hc         1 6VK       0.040033
     38 H12          1.3090     0.1330     2.6820 hc         1 6VK       0.040033
     39 H13         -0.2240     0.9960     2.6280 hc         1 6VK       0.040033
     40 H14          0.3600    -0.8260    -1.7860 ha         1 6VK       0.111000
     41 H15          1.5260    -2.7530    -2.7610 ha         1 6VK       0.106500
     42 H16          2.7940    -4.3110    -1.3050 ha         1 6VK       0.107000
     43 H17          2.8630    -3.9040     1.1380 ha         1 6VK       0.106500
     44 H18          1.6980    -1.9880     2.1080 ha         1 6VK       0.111000
     45 H19          3.4970     0.8990     1.9040 hc         1 6VK       0.096700
     46 H20          4.8970     1.7600    -0.7300 hc         1 6VK       0.077700
     47 H21          5.6940     1.2850     0.8310 hc         1 6VK       0.077700
     48 H22          4.5620    -0.9740     0.7060 hc         1 6VK       0.077700
     49 H23          3.7440    -0.4780    -0.8400 hc         1 6VK       0.077700
     50 H24          3.1460     3.3590    -0.5250 hn         1 6VK       0.374000
     51 H25         -1.4580     2.9780    -1.1930 hn         1 6VK       0.512000
@<TRIPOS>BOND
     1     1     2 2   
     2     2     3 1   
     3     2     9 1   
     4     3     4 2   
     5     3    10 1   
     6     4     5 1   
     7     4    26 1   
     8     5     6 1   
     9     5    27 1   
    10     5    28 1   
    11     6     7 1   
    12     6     8 1   
    13     6     9 1   
    14     7    29 1   
    15     7    30 1   
    16     7    31 1   
    17     8    32 1   
    18     8    33 1   
    19     8    34 1   
    20     9    35 1   
    21     9    36 1   
    22    10    11 1   
    23    10    12 1   
    24    10    18 1   
    25    11    37 1   
    26    11    38 1   
    27    11    39 1   
    28    12    13 ar  
    29    12    17 ar  
    30    13    14 ar  
    31    13    40 1   
    32    14    15 ar  
    33    14    41 1   
    34    15    16 ar  
    35    15    42 1   
    36    16    17 ar  
    37    16    43 1   
    38    17    44 1   
    39    18    19 2   
    40    18    25 1   
    41    19    20 1   
    42    19    23 1   
    43    20    21 1   
    44    20    22 1   
    45    20    45 1   
    46    21    22 1   
    47    21    46 1   
    48    21    47 1   
    49    22    48 1   
    50    22    49 1   
    51    23    24 1   
    52    23    50 1   
    53    24    25 2   
    54    25    26 1   
    55    26    51 1   
@<TRIPOS>SUBSTRUCTURE
     1 6VK         1 TEMP              0 ****  ****    0 ROOT
