@<TRIPOS>MOLECULE
6VK
   51    55     1     0     0
SMALL
No Charge or Current Charge


@<TRIPOS>ATOM
      1 O           -1.7450    -1.8130     1.6450 o          1 6VK      -0.545100
      2 C4          -2.0320    -0.9690     0.8060 c          1 6VK       0.593300
      3 C5          -1.1630     0.2410     0.5160 ce         1 6VK      -0.313400
      4 C6          -1.7430     1.3020    -0.0990 c2         1 6VK       0.203800
      5 C7          -3.1960     1.3320    -0.5880 c6         1 6VK      -0.053200
      6 C1          -4.1100     0.1710    -0.0740 c6         1 6VK      -0.032000
      7 C2          -5.3600     0.0250    -0.9920 c3         1 6VK      -0.086600
      8 C           -4.6320     0.4930     1.3610 c3         1 6VK      -0.086600
      9 C3          -3.3040    -1.1570    -0.0690 c6         1 6VK      -0.176400
     10 C14          0.3490     0.1740     0.8860 c6         1 6VK       0.175800
     11 C15          0.4560     0.3650     2.4310 c3         1 6VK      -0.078100
     12 C16          0.9570    -1.1490     0.3580 ca         1 6VK      -0.046300
     13 C17          0.8700    -1.4230    -1.0250 ca         1 6VK      -0.097000
     14 C18          1.4070    -2.6050    -1.5610 ca         1 6VK      -0.118000
     15 C19          2.0400    -3.5340    -0.7200 ca         1 6VK      -0.117000
     16 C20          2.1330    -3.2780     0.6570 ca         1 6VK      -0.118000
     17 C21          1.5960    -2.0950     1.1960 ca         1 6VK      -0.097000
     18 C13          1.0770     1.3520     0.2570 cc         1 6VK      -0.212300
     19 C9           2.4080     1.6440     0.1360 cd         1 6VK      -0.067300
     20 C10          3.5630     0.8310     0.6010 cx         1 6VK      -0.080400
     21 C11          4.9310     0.9930    -0.0270 cx         1 6VK      -0.117900
     22 C12          4.1300    -0.2580    -0.2820 cx         1 6VK      -0.117900
     23 N2           2.4210     2.8930    -0.5190 na         1 6VK      -0.002200
     24 N1           1.1390     3.3680    -0.8210 nd         1 6VK      -0.561800
     25 C8           0.4050     2.4090    -0.3340 cc         1 6VK       0.484900
     26 N           -0.9380     2.3790    -0.4170 nu         1 6VK      -0.776900
     27 H1          -3.6500     2.3010    -0.3360 hc         1 6VK       0.057700
     28 H2          -3.1670     1.3010    -1.6860 hc         1 6VK       0.057700
     29 H3          -5.0750    -0.2230    -2.0220 hc         1 6VK       0.038867
     30 H4          -6.0270    -0.7710    -0.6380 hc         1 6VK       0.038867
     31 H5          -5.9420     0.9540    -1.0280 hc         1 6VK       0.038867
     32 H6          -5.2610     1.3910     1.3670 hc         1 6VK       0.038867
     33 H7          -5.2350    -0.3320     1.7630 hc         1 6VK       0.038867
     34 H8          -3.8110     0.6720     2.0660 hc         1 6VK       0.038867
     35 H9          -2.9570    -1.3170    -1.0980 hc         1 6VK       0.068200
     36 H10         -3.8850    -2.0270     0.2650 hc         1 6VK       0.068200
     37 H11         -0.0390    -0.4370     2.9880 hc         1 6VK       0.040033
     38 H12          1.4990     0.4000     2.7650 hc         1 6VK       0.040033
     39 H13         -0.0110     1.3080     2.7390 hc         1 6VK       0.040033
     40 H14          0.3870    -0.7100    -1.6890 ha         1 6VK       0.111000
     41 H15          1.3340    -2.8000    -2.6290 ha         1 6VK       0.106500
     42 H16          2.4570    -4.4490    -1.1340 ha         1 6VK       0.107000
     43 H17          2.6230    -3.9960     1.3100 ha         1 6VK       0.106500
     44 H18          1.6880    -1.9300     2.2650 ha         1 6VK       0.111000
     45 H19          3.5480     0.6350     1.6700 hc         1 6VK       0.096700
     46 H20          5.0470     1.6890    -0.8540 hc         1 6VK       0.077700
     47 H21          5.7990     0.9150     0.6240 hc         1 6VK       0.077700
     48 H22          4.4530    -1.1780     0.1980 hc         1 6VK       0.077700
     49 H23          3.6930    -0.3890    -1.2690 hc         1 6VK       0.077700
     50 H24          3.2560     3.4230    -0.7680 hn         1 6VK       0.374000
     51 H25         -1.3390     3.1620    -0.9270 hn         1 6VK       0.512000
@<TRIPOS>BOND
     1     1     2 2   
     2     2     3 1   
     3     2     9 1   
     4     3     4 2   
     5     3    10 1   
     6     4     5 1   
     7     4    26 1   
     8     5     6 1   
     9     5    27 1   
    10     5    28 1   
    11     6     7 1   
    12     6     8 1   
    13     6     9 1   
    14     7    29 1   
    15     7    30 1   
    16     7    31 1   
    17     8    32 1   
    18     8    33 1   
    19     8    34 1   
    20     9    35 1   
    21     9    36 1   
    22    10    11 1   
    23    10    12 1   
    24    10    18 1   
    25    11    37 1   
    26    11    38 1   
    27    11    39 1   
    28    12    13 ar  
    29    12    17 ar  
    30    13    14 ar  
    31    13    40 1   
    32    14    15 ar  
    33    14    41 1   
    34    15    16 ar  
    35    15    42 1   
    36    16    17 ar  
    37    16    43 1   
    38    17    44 1   
    39    18    19 2   
    40    18    25 1   
    41    19    20 1   
    42    19    23 1   
    43    20    21 1   
    44    20    22 1   
    45    20    45 1   
    46    21    22 1   
    47    21    46 1   
    48    21    47 1   
    49    22    48 1   
    50    22    49 1   
    51    23    24 1   
    52    23    50 1   
    53    24    25 2   
    54    25    26 1   
    55    26    51 1   
@<TRIPOS>SUBSTRUCTURE
     1 6VK         1 TEMP              0 ****  ****    0 ROOT
