@<TRIPOS>MOLECULE
6VL
   47    50     1     0     0
SMALL
bcc


@<TRIPOS>ATOM
      1 C29         -1.1720    -0.1660     2.2020 c3         1 6VL      -0.067400
      2 C26         -2.5620     3.1020    -1.6090 ca         1 6VL      -0.132000
      3 C25         -1.7860     2.1200    -2.2130 ca         1 6VL      -0.135500
      4 C28         -2.2200     2.0200     0.5190 ca         1 6VL      -0.113000
      5 C27         -2.7750     3.0450    -0.2390 ca         1 6VL      -0.135500
      6 C24         -1.2460     1.0950    -1.4520 ca         1 6VL      -0.113000
      7 C23         -1.2740    -1.4230     0.0460 cc         1 6VL      -0.279600
      8 C31         -2.6000    -0.5550     2.5660 c3         1 6VL      -0.087100
      9 C15         -0.8180    -0.1420     0.6930 c6         1 6VL       0.178800
     10 C14          2.9790    -1.0470     0.0130 c6         1 6VL      -0.052200
     11 C6          -0.4060    -2.4320    -0.3800 cc         1 6VL       0.546200
     12 C11          3.4990     0.3640    -0.2420 c6         1 6VL      -0.032000
     13 C12          3.1080     0.8440    -1.6410 c3         1 6VL      -0.087600
     14 O            0.7610     2.1140     1.4060 o          1 6VL      -0.548100
     15 C10          2.8820     1.2540     0.8300 c6         1 6VL      -0.176400
     16 C13          5.0200     0.3760    -0.1200 c3         1 6VL      -0.087600
     17 N2           0.9590    -2.2930    -0.2960 nu         1 6VL      -0.717700
     18 N1          -1.0210    -3.4710    -0.9040 nd         1 6VL      -0.564800
     19 N           -2.3120    -3.1340    -0.8270 na         1 6VL      -0.008600
     20 C5          -2.5150    -1.9270    -0.2760 cd         1 6VL      -0.094300
     21 C8           0.7120    -0.0690     0.5470 ce         1 6VL      -0.312400
     22 C30         -1.4520     1.0240    -0.0740 ca         1 6VL      -0.056300
     23 H1          -0.9310     0.8040     2.6350 hc         1 6VL       0.051200
     24 H2          -0.4940    -0.8810     2.6750 hc         1 6VL       0.051200
     25 H3          -2.9910     3.9020    -2.1970 ha         1 6VL       0.125000
     26 H4          -1.6030     2.1510    -3.2800 ha         1 6VL       0.125000
     27 H5          -2.3890     2.0200     1.5870 ha         1 6VL       0.130500
     28 H6          -3.3710     3.8050     0.2500 ha         1 6VL       0.125000
     29 H7          -0.6500     0.3340    -1.9410 ha         1 6VL       0.130500
     30 H8          -3.3510     0.0130     2.0160 hc         1 6VL       0.029700
     31 H9          -2.7900    -1.6110     2.3810 hc         1 6VL       0.029700
     32 H10         -2.7720    -0.3770     3.6290 hc         1 6VL       0.029700
     33 H11          3.3300    -1.7280    -0.7680 hc         1 6VL       0.058200
     34 H12          3.3900    -1.4250     0.9570 hc         1 6VL       0.058200
     35 H13          2.0280     0.8490    -1.7970 hc         1 6VL       0.039033
     36 H14          3.4690     1.8610    -1.8090 hc         1 6VL       0.039033
     37 H15          3.5530     0.2070    -2.4080 hc         1 6VL       0.039033
     38 H16          3.1490     2.3030     0.6760 hc         1 6VL       0.068200
     39 H17          3.2920     0.9710     1.8080 hc         1 6VL       0.068200
     40 H18          5.4760    -0.2920    -0.8550 hc         1 6VL       0.039033
     41 H19          5.4160     1.3790    -0.2950 hc         1 6VL       0.039033
     42 H20          5.3460     0.0580     0.8720 hc         1 6VL       0.039033
     43 H22         -3.5070    -1.5200    -0.1620 h4         1 6VL       0.179000
     44 H24          1.5580    -3.0040    -0.6860 hn         1 6VL       0.455800
     45 H21         -3.0150    -3.7730    -1.1600 hn         1 6VL       0.325700
     46 C9           1.3740     1.1590     0.9450 c          1 6VL       0.594300
     47 C7           1.4830    -1.1090     0.0960 c2         1 6VL       0.202800
@<TRIPOS>BOND
     1     1     8 1   
     2     1     9 1   
     3     1    23 1   
     4     1    24 1   
     5     2     3 ar  
     6     2     5 ar  
     7     2    25 1   
     8     3     6 ar  
     9     3    26 1   
    10     4     5 ar  
    11     4    22 ar  
    12     4    27 1   
    13     5    28 1   
    14     6    22 ar  
    15     6    29 1   
    16     7     9 1   
    17     7    11 1   
    18     7    20 2   
    19     8    30 1   
    20     8    31 1   
    21     8    32 1   
    22     9    21 1   
    23     9    22 1   
    24    10    12 1   
    25    10    33 1   
    26    10    34 1   
    27    10    47 1   
    28    11    17 1   
    29    11    18 2   
    30    12    13 1   
    31    12    15 1   
    32    12    16 1   
    33    13    35 1   
    34    13    36 1   
    35    13    37 1   
    36    14    46 2   
    37    15    38 1   
    38    15    39 1   
    39    15    46 1   
    40    16    40 1   
    41    16    41 1   
    42    16    42 1   
    43    17    44 1   
    44    17    47 1   
    45    18    19 1   
    46    19    20 1   
    47    19    45 1   
    48    20    43 1   
    49    21    46 1   
    50    21    47 2   
@<TRIPOS>SUBSTRUCTURE
     1 6VL         1 TEMP              0 ****  ****    0 ROOT
