@<TRIPOS>MOLECULE
6VL
   47    50     1     0     0
SMALL
No Charge or Current Charge


@<TRIPOS>ATOM
      1 C29         -0.9580    -0.0620     2.1150 c3         1 6VL      -0.067400
      2 C26         -2.9830     2.9380    -1.7510 ca         1 6VL      -0.114000
      3 C25         -2.3080     1.8910    -2.3950 ca         1 6VL      -0.117500
      4 C28         -2.2830     2.0530     0.4090 ca         1 6VL      -0.095000
      5 C27         -2.9670     3.0190    -0.3500 ca         1 6VL      -0.117500
      6 C24         -1.6240     0.9240    -1.6380 ca         1 6VL      -0.095000
      7 C23         -1.3400    -1.4710     0.0690 cc         1 6VL      -0.214300
      8 C31         -2.3340    -0.4020     2.7390 c3         1 6VL      -0.087100
      9 C15         -0.8280    -0.1210     0.5460 c6         1 6VL       0.178800
     10 C14          2.9650    -1.0020    -0.4250 c6         1 6VL      -0.052200
     11 C6          -0.5200    -2.4540    -0.4540 cc         1 6VL       0.480900
     12 C11          3.6410     0.3710    -0.1100 c6         1 6VL      -0.032000
     13 C12          3.6650     1.2640    -1.3910 c3         1 6VL      -0.087600
     14 O            0.8570     2.3560     0.6630 o          1 6VL      -0.548100
     15 C10          2.8530     1.0800     1.0250 c6         1 6VL      -0.176400
     16 C13          5.1210     0.1590     0.3270 c3         1 6VL      -0.087600
     17 N2           0.7980    -2.2180    -0.5640 nu         1 6VL      -0.772900
     18 N1          -1.1040    -3.5460    -0.8590 nd         1 6VL      -0.564800
     19 N           -2.4470    -3.2460    -0.5870 na         1 6VL      -0.008200
     20 C5          -2.6110    -1.9610    -0.0340 cd         1 6VL      -0.127000
     21 C8           0.7000    -0.0100     0.2330 ce         1 6VL      -0.312400
     22 C30         -1.6070     0.9810    -0.2260 ca         1 6VL      -0.056300
     23 H1          -0.6530     0.9250     2.4790 hc         1 6VL       0.051200
     24 H2          -0.2340    -0.7600     2.5520 hc         1 6VL       0.051200
     25 H3          -3.5130     3.6870    -2.3350 ha         1 6VL       0.107000
     26 H4          -2.3120     1.8270    -3.4810 ha         1 6VL       0.107000
     27 H5          -2.2790     2.1630     1.4880 ha         1 6VL       0.112500
     28 H6          -3.4820     3.8360     0.1510 ha         1 6VL       0.107000
     29 H7          -1.1010     0.1220    -2.1550 ha         1 6VL       0.112500
     30 H8          -3.1490     0.1450     2.2520 hc         1 6VL       0.029700
     31 H9          -2.5440    -1.4750     2.6600 hc         1 6VL       0.029700
     32 H10         -2.3390    -0.1430     3.8040 hc         1 6VL       0.029700
     33 H11          3.2420    -1.3370    -1.4340 hc         1 6VL       0.058200
     34 H12          3.3720    -1.7630     0.2560 hc         1 6VL       0.058200
     35 H13          2.6620     1.4070    -1.8100 hc         1 6VL       0.039033
     36 H14          4.0790     2.2570    -1.1790 hc         1 6VL       0.039033
     37 H15          4.2800     0.8140    -2.1800 hc         1 6VL       0.039033
     38 H16          3.2910     2.0410     1.3250 hc         1 6VL       0.068200
     39 H17          2.8500     0.3920     1.8810 hc         1 6VL       0.068200
     40 H18          5.6980    -0.3590    -0.4500 hc         1 6VL       0.039033
     41 H19          5.6210     1.1150     0.5280 hc         1 6VL       0.039033
     42 H20          5.1870    -0.4430     1.2410 hc         1 6VL       0.039033
     43 H22         -3.5740    -1.5320     0.2200 h4         1 6VL       0.161000
     44 H24          1.3290    -2.9860    -0.9690 hn         1 6VL       0.511000
     45 H21         -3.1950    -3.9080    -0.7950 hn         1 6VL       0.376000
     46 C9           1.3990     1.2610     0.5940 c          1 6VL       0.594300
     47 C7           1.4420    -1.0330    -0.2680 c2         1 6VL       0.202800
@<TRIPOS>BOND
     1     1     8 1   
     2     1     9 1   
     3     1    23 1   
     4     1    24 1   
     5     2     3 ar  
     6     2     5 ar  
     7     2    25 1   
     8     3     6 ar  
     9     3    26 1   
    10     4     5 ar  
    11     4    22 ar  
    12     4    27 1   
    13     5    28 1   
    14     6    22 ar  
    15     6    29 1   
    16     7     9 1   
    17     7    11 1   
    18     7    20 2   
    19     8    30 1   
    20     8    31 1   
    21     8    32 1   
    22     9    21 1   
    23     9    22 1   
    24    10    12 1   
    25    10    33 1   
    26    10    34 1   
    27    10    47 1   
    28    11    17 1   
    29    11    18 2   
    30    12    13 1   
    31    12    15 1   
    32    12    16 1   
    33    13    35 1   
    34    13    36 1   
    35    13    37 1   
    36    14    46 2   
    37    15    38 1   
    38    15    39 1   
    39    15    46 1   
    40    16    40 1   
    41    16    41 1   
    42    16    42 1   
    43    17    44 1   
    44    17    47 1   
    45    18    19 1   
    46    19    20 1   
    47    19    45 1   
    48    20    43 1   
    49    21    46 1   
    50    21    47 2   
@<TRIPOS>SUBSTRUCTURE
     1 6VL         1 TEMP              0 ****  ****    0 ROOT
