@<TRIPOS>MOLECULE
6VM
   59    62     1     0     0
SMALL
No Charge or Current Charge


@<TRIPOS>ATOM
      1 C1          -4.4970    -0.7180     0.4050 c3         1 6VM      -0.042000
      2 C2          -4.1010    -1.6120     1.6100 c3         1 6VM      -0.088100
      3 C3          -5.4630     0.3860     0.9120 c3         1 6VM      -0.088100
      4 C4          -3.2060     0.0040    -0.1750 c3         1 6VM      -0.020100
      5 C5          -2.0910    -0.8980    -0.6600 cc         1 6VM      -0.083300
      6 C6          -0.2040    -1.9520    -1.1190 cd         1 6VM       0.483900
      7 C14          3.5160    -1.7030    -0.6860 c6         1 6VM      -0.053200
      8 C24         -0.6220     2.2050     1.4800 ca         1 6VM      -0.097500
      9 C25         -0.8120     3.5730     1.2180 ca         1 6VM      -0.116500
     10 C26         -0.5410     4.0950    -0.0560 ca         1 6VM      -0.115000
     11 C27         -0.0780     3.2460    -1.0730 ca         1 6VM      -0.116500
     12 C9           2.5820     0.3550     1.1840 c          1 6VM       0.594300
     13 C8           1.5820    -0.5030     0.4810 ce         1 6VM      -0.312400
     14 C7           2.0380    -1.4760    -0.3530 c2         1 6VM       0.203800
     15 C11          4.5260    -0.8090     0.1070 c6         1 6VM      -0.032000
     16 C10          3.8760     0.5710     0.4050 c6         1 6VM      -0.176400
     17 C15          0.0690    -0.1810     0.6810 c6         1 6VM       0.176800
     18 C29         -0.3450    -0.6970     2.0930 c3         1 6VM      -0.081100
     19 C30         -0.1590     1.3370     0.4610 ca         1 6VM      -0.051300
     20 C28          0.1120     1.8780    -0.8140 ca         1 6VM      -0.097500
     21 C23         -0.7630    -0.9680    -0.3190 cd         1 6VM      -0.219300
     22 C           -5.2940    -1.6060    -0.6290 c3         1 6VM      -0.088100
     23 N           -2.2010    -1.8560    -1.6790 na         1 6VM      -0.009200
     24 N1          -1.0140    -2.5270    -1.9640 nc         1 6VM      -0.564800
     25 N2           1.1070    -2.2190    -1.0590 nu         1 6VM      -0.775900
     26 H1          -3.3810    -2.3840     1.3120 hc         1 6VM       0.036256
     27 H2          -3.6520    -1.0150     2.4110 hc         1 6VM       0.036256
     28 H3          -4.9800    -2.1170     2.0280 hc         1 6VM       0.036256
     29 H4          -4.9810     1.0180     1.6680 hc         1 6VM       0.036256
     30 H5          -5.7850     1.0330     0.0870 hc         1 6VM       0.036256
     31 H6          -6.3610    -0.0520     1.3670 hc         1 6VM       0.036256
     32 H7          -3.5100     0.6560    -1.0040 hc         1 6VM       0.065200
     33 H8          -2.8150     0.6780     0.5940 hc         1 6VM       0.065200
     34 H9           6.3070    -1.5690    -0.9580 hc         1 6VM       0.038867
     35 H10          5.6350    -0.0930    -1.6650 hc         1 6VM       0.038867
     36 H11          6.5670    -0.0070    -0.1660 hc         1 6VM       0.038867
     37 H12          5.5940    -0.8790     2.0430 hc         1 6VM       0.038867
     38 H13          4.0580    -1.7560     2.0570 hc         1 6VM       0.038867
     39 H14          5.4630    -2.4540     1.2510 hc         1 6VM       0.038867
     40 H15          3.7660    -2.7650    -0.5550 hc         1 6VM       0.057700
     41 H16          3.6360    -1.5060    -1.7600 hc         1 6VM       0.057700
     42 H17         -0.8390     1.8380     2.4780 ha         1 6VM       0.112000
     43 H18         -1.1690     4.2310     2.0080 ha         1 6VM       0.106500
     44 H19         -0.6890     5.1540    -0.2550 ha         1 6VM       0.107000
     45 H20          0.1340     3.6460    -2.0610 ha         1 6VM       0.106500
     46 H22          3.5990     1.0010    -0.5660 hc         1 6VM       0.068200
     47 H23          4.5420     1.2600     0.9410 hc         1 6VM       0.068200
     48 H24          0.2230    -0.2260     2.9010 hc         1 6VM       0.040033
     49 H25         -1.4040    -0.5090     2.2910 hc         1 6VM       0.040033
     50 H26         -0.1860    -1.7790     2.1750 hc         1 6VM       0.040033
     51 H27          0.4710     1.2310    -1.6120 ha         1 6VM       0.112000
     52 H28         -6.2450    -1.9470    -0.2020 hc         1 6VM       0.036256
     53 H29         -5.5170    -1.0360    -1.5390 hc         1 6VM       0.036256
     54 H30         -4.7250    -2.4990    -0.9110 hc         1 6VM       0.036256
     55 H31         -3.0540    -2.0670    -2.1950 hn         1 6VM       0.374000
     56 H21          1.4280    -2.8950    -1.7480 hn         1 6VM       0.511000
     57 C12          5.8330    -0.6090    -0.7170 c3         1 6VM      -0.087100
     58 C13          4.9320    -1.5120     1.4400 c3         1 6VM      -0.087100
     59 O            2.3740     0.9410     2.2380 o          1 6VM      -0.547100
@<TRIPOS>BOND
     1     1     2 1   
     2     1     3 1   
     3     1     4 1   
     4     1    22 1   
     5     2    26 1   
     6     2    27 1   
     7     2    28 1   
     8     3    29 1   
     9     3    30 1   
    10     3    31 1   
    11     4     5 1   
    12     4    32 1   
    13     4    33 1   
    14     5    21 2   
    15     5    23 1   
    16     6    21 1   
    17     6    24 2   
    18     6    25 1   
    19     7    14 1   
    20     7    15 1   
    21     7    40 1   
    22     7    41 1   
    23     8     9 ar  
    24     8    19 ar  
    25     8    42 1   
    26     9    10 ar  
    27     9    43 1   
    28    10    11 ar  
    29    10    44 1   
    30    11    20 ar  
    31    11    45 1   
    32    12    13 1   
    33    12    16 1   
    34    12    59 2   
    35    13    14 2   
    36    13    17 1   
    37    14    25 1   
    38    15    16 1   
    39    15    57 1   
    40    15    58 1   
    41    16    46 1   
    42    16    47 1   
    43    17    18 1   
    44    17    19 1   
    45    17    21 1   
    46    18    48 1   
    47    18    49 1   
    48    18    50 1   
    49    19    20 ar  
    50    20    51 1   
    51    22    52 1   
    52    22    53 1   
    53    22    54 1   
    54    23    24 1   
    55    23    55 1   
    56    25    56 1   
    57    34    57 1   
    58    35    57 1   
    59    36    57 1   
    60    37    58 1   
    61    38    58 1   
    62    39    58 1   
@<TRIPOS>SUBSTRUCTURE
     1 6VM         1 TEMP              0 ****  ****    0 ROOT
