@<TRIPOS>MOLECULE
6VM
   59    62     1     0     0
SMALL
abcg2


@<TRIPOS>ATOM
      1 C1          -4.3160    -0.7890     0.5620 c3         1 6VM      -0.042000
      2 C2          -3.7500    -1.4600     1.8100 c3         1 6VM      -0.088100
      3 C3          -5.3390     0.2710     0.9790 c3         1 6VM      -0.088100
      4 C4          -3.2070    -0.0530    -0.2240 c3         1 6VM      -0.020100
      5 C5          -2.0470    -0.8550    -0.7130 cc         1 6VM      -0.083300
      6 C6          -0.1360    -1.7540    -1.2870 cd         1 6VM       0.483900
      7 C14          3.5100    -1.4330    -0.9440 c6         1 6VM      -0.053200
      8 C24         -0.7950     2.2630     1.3550 ca         1 6VM      -0.097500
      9 C25         -1.1570     3.5830     1.1140 ca         1 6VM      -0.116500
     10 C26         -0.9460     4.1520    -0.1330 ca         1 6VM      -0.115000
     11 C27         -0.3730     3.3840    -1.1390 ca         1 6VM      -0.116500
     12 C9           2.5950     0.6050     0.8950 c          1 6VM       0.594300
     13 C8           1.6170    -0.2140     0.2070 ce         1 6VM      -0.312400
     14 C7           2.0610    -1.1850    -0.6510 c2         1 6VM       0.203800
     15 C11          4.4420    -1.0020     0.1830 c6         1 6VM      -0.032000
     16 C10          4.0590     0.4260     0.5570 c6         1 6VM      -0.176400
     17 C15          0.1340     0.0070     0.5450 c6         1 6VM       0.176800
     18 C29         -0.1340    -0.4970     1.9700 c3         1 6VM      -0.081100
     19 C30         -0.2260     1.4820     0.3560 ca         1 6VM      -0.051300
     20 C28         -0.0230     2.0650    -0.8940 ca         1 6VM      -0.097500
     21 C23         -0.6940    -0.8060    -0.4220 cd         1 6VM      -0.219300
     22 C           -5.0210    -1.8370    -0.3020 c3         1 6VM      -0.088100
     23 N           -2.1750    -1.7890    -1.6800 na         1 6VM      -0.009200
     24 N1          -1.0200    -2.3530    -2.0520 nc         1 6VM      -0.564800
     25 N2           1.2170    -1.9890    -1.3370 nu         1 6VM      -0.775900
     26 H1          -2.9880    -2.2020     1.5620 hc         1 6VM       0.036256
     27 H2          -3.2980    -0.7290     2.4830 hc         1 6VM       0.036256
     28 H3          -4.5400    -1.9700     2.3650 hc         1 6VM       0.036256
     29 H4          -4.8790     1.0470     1.5950 hc         1 6VM       0.036256
     30 H5          -5.7840     0.7560     0.1070 hc         1 6VM       0.036256
     31 H6          -6.1470    -0.1760     1.5610 hc         1 6VM       0.036256
     32 H7          -3.6700     0.4430    -1.0840 hc         1 6VM       0.065200
     33 H8          -2.8140     0.7500     0.4000 hc         1 6VM       0.065200
     34 H9           6.1650    -2.0500    -0.6250 hc         1 6VM       0.038867
     35 H10          6.0430    -0.3670    -1.1500 hc         1 6VM       0.038867
     36 H11          6.5750    -0.7450     0.4870 hc         1 6VM       0.038867
     37 H12          4.9420    -1.6140     2.2050 hc         1 6VM       0.038867
     38 H13          3.2750    -1.9730     1.7670 hc         1 6VM       0.038867
     39 H14          4.5860    -2.9550     1.1180 hc         1 6VM       0.038867
     40 H15          3.6550    -2.4940    -1.1730 hc         1 6VM       0.057700
     41 H16          3.7650    -0.8870    -1.8610 hc         1 6VM       0.057700
     42 H17         -0.9650     1.8540     2.3430 ha         1 6VM       0.112000
     43 H18         -1.6020     4.1680     1.9090 ha         1 6VM       0.106500
     44 H19         -1.2260     5.1810    -0.3220 ha         1 6VM       0.107000
     45 H20         -0.2010     3.8120    -2.1190 ha         1 6VM       0.106500
     46 H22          4.2830     1.0910    -0.2870 hc         1 6VM       0.068200
     47 H23          4.6570     0.7830     1.3990 hc         1 6VM       0.068200
     48 H24          0.4550     0.0370     2.7120 hc         1 6VM       0.040033
     49 H25         -1.1860    -0.3950     2.2360 hc         1 6VM       0.040033
     50 H26          0.1140    -1.5560     2.0330 hc         1 6VM       0.040033
     51 H27          0.4180     1.4770    -1.6910 ha         1 6VM       0.112000
     52 H28         -5.9070    -2.2140     0.2120 hc         1 6VM       0.036256
     53 H29         -5.3500    -1.4150    -1.2550 hc         1 6VM       0.036256
     54 H30         -4.3860    -2.7000    -0.5070 hc         1 6VM       0.036256
     55 H31         -3.0190    -2.0440    -2.1640 hn         1 6VM       0.374000
     56 H21          1.5830    -2.6730    -1.9800 hn         1 6VM       0.511000
     57 C12          5.8870    -1.0430    -0.3060 c3         1 6VM      -0.087100
     58 C13          4.2970    -1.9370     1.3860 c3         1 6VM      -0.087100
     59 O            2.2720     1.4560     1.7160 o          1 6VM      -0.547100
@<TRIPOS>BOND
     1     1     2 1   
     2     1     3 1   
     3     1     4 1   
     4     1    22 1   
     5     2    26 1   
     6     2    27 1   
     7     2    28 1   
     8     3    29 1   
     9     3    30 1   
    10     3    31 1   
    11     4     5 1   
    12     4    32 1   
    13     4    33 1   
    14     5    21 2   
    15     5    23 1   
    16     6    21 1   
    17     6    24 2   
    18     6    25 1   
    19     7    14 1   
    20     7    15 1   
    21     7    40 1   
    22     7    41 1   
    23     8     9 ar  
    24     8    19 ar  
    25     8    42 1   
    26     9    10 ar  
    27     9    43 1   
    28    10    11 ar  
    29    10    44 1   
    30    11    20 ar  
    31    11    45 1   
    32    12    13 1   
    33    12    16 1   
    34    12    59 2   
    35    13    14 2   
    36    13    17 1   
    37    14    25 1   
    38    15    16 1   
    39    15    57 1   
    40    15    58 1   
    41    16    46 1   
    42    16    47 1   
    43    17    18 1   
    44    17    19 1   
    45    17    21 1   
    46    18    48 1   
    47    18    49 1   
    48    18    50 1   
    49    19    20 ar  
    50    20    51 1   
    51    22    52 1   
    52    22    53 1   
    53    22    54 1   
    54    23    24 1   
    55    23    55 1   
    56    25    56 1   
    57    34    57 1   
    58    35    57 1   
    59    36    57 1   
    60    37    58 1   
    61    38    58 1   
    62    39    58 1   
@<TRIPOS>SUBSTRUCTURE
     1 6VM         1 TEMP              0 ****  ****    0 ROOT
