@<TRIPOS>MOLECULE
6VN
   63    66     1     0     0
SMALL
bcc


@<TRIPOS>ATOM
      1 C1          -2.2600     0.5140    -0.0240 ca         1 6VN      -0.088200
      2 C2          -2.3770     2.9300     0.0420 ca         1 6VN      -0.055000
      3 C3          -3.6400     0.3990    -0.0940 ca         1 6VN      -0.184000
      4 C4          -3.7640     2.8390    -0.0280 ca         1 6VN      -0.152600
      5 C8           5.0260     1.2700    -0.1160 ca         1 6VN      -0.125300
      6 C9           4.7630     0.0410     0.4870 ca         1 6VN      -0.096000
      7 C10          3.9390     1.9770    -0.6170 ca         1 6VN      -0.096000
      8 C11          3.4750    -0.4560     0.5800 ca         1 6VN      -0.177000
      9 C12          2.6390     1.4970    -0.5360 ca         1 6VN      -0.177000
     10 C13          2.3930     0.2650     0.0690 ca         1 6VN       0.200600
     11 C15         -1.1060    -2.6180     1.1510 c6         1 6VN      -0.082400
     12 C16         -1.4180    -4.1190     1.0500 c6         1 6VN      -0.044000
     13 C17         -1.4470    -1.8590    -0.1310 c6         1 6VN       0.069000
     14 C18         -0.7530    -4.6840    -0.2130 c6         1 6VN      -0.066400
     15 C19         -0.7620    -2.4550    -1.3580 c6         1 6VN      -0.089400
     16 C20         -1.1080    -3.9370    -1.4970 c6         1 6VN      -0.061700
     17 C21         -0.4060    -4.5480    -2.7020 c3         1 6VN      -0.085100
     18 C24          6.9070     2.2950     1.1800 c3         1 6VN      -0.082600
     19 C25          7.4120     0.8350    -0.8090 c3         1 6VN      -0.082600
     20 N1          -1.2430    -0.4190    -0.0050 na         1 6VN      -0.191300
     21 C5          -4.3730     1.5770    -0.0960 ca         1 6VN      -0.078000
     22 C7          -4.6140     4.1010    -0.0270 c          1 6VN       0.924200
     23 O1          -5.8510     3.9470    -0.0820 o          1 6VN      -0.827300
     24 O           -4.0050     5.1880     0.0300 o          1 6VN      -0.827300
     25 C           -1.6250     1.7620     0.0430 ca         1 6VN       0.065400
     26 N           -0.2620     1.5940     0.1180 nc         1 6VN      -0.620100
     27 C6          -0.0780     0.3020     0.0890 cd         1 6VN       0.620700
     28 N2           1.1300    -0.3230     0.1470 nu         1 6VN      -0.721600
     29 H1          -1.8940     3.8960     0.0970 ha         1 6VN       0.162000
     30 H2          -4.1440    -0.5580    -0.1460 ha         1 6VN       0.108000
     31 H3           5.5750    -0.5480     0.8990 ha         1 6VN       0.122000
     32 H4           4.1060     2.9350    -1.0960 ha         1 6VN       0.122000
     33 H5           3.3060    -1.4140     1.0580 ha         1 6VN       0.146500
     34 H6           1.8260     2.0820    -0.9370 ha         1 6VN       0.146500
     35 H7           6.3920     2.7060    -0.8490 hc         1 6VN       0.045700
     36 H8          -1.6480    -2.1760     1.9920 hc         1 6VN       0.047200
     37 H9          -0.0410    -2.5140     1.3910 hc         1 6VN       0.047200
     38 H10         -2.5200    -1.9600    -0.2980 h1         1 6VN       0.071700
     39 H11          0.3360    -4.6480    -0.0820 hc         1 6VN       0.035200
     40 H12         -1.0130    -5.7420    -0.3180 hc         1 6VN       0.035200
     41 H13         -1.0770    -1.9070    -2.2500 hc         1 6VN       0.053700
     42 H14          0.3260    -2.3510    -1.2930 hc         1 6VN       0.053700
     43 H15         -2.1880    -4.0180    -1.6630 hc         1 6VN       0.049700
     44 H16         -0.6560    -5.6060    -2.8080 hc         1 6VN       0.031700
     45 H17         -0.6950    -4.0450    -3.6270 hc         1 6VN       0.031700
     46 H18          0.6790    -4.4720    -2.6060 hc         1 6VN       0.031700
     47 H19          6.2420     3.0530     1.5960 hc         1 6VN       0.030367
     48 H20          6.9470     1.4630     1.8870 hc         1 6VN       0.030367
     49 H21          7.9090     2.7240     1.1170 hc         1 6VN       0.030367
     50 H22          7.5320    -0.0510    -0.1830 hc         1 6VN       0.030367
     51 H23          7.0830     0.5050    -1.7950 hc         1 6VN       0.030367
     52 H24          8.3970     1.2920    -0.9180 hc         1 6VN       0.030367
     53 H25         -1.2670    -4.4170     3.2000 hc         1 6VN       0.033367
     54 H26         -1.0380    -5.8890     2.2550 hc         1 6VN       0.033367
     55 H27          0.2470    -4.6850     2.3310 hc         1 6VN       0.033367
     56 H28         -3.4370    -3.8850     0.1900 hc         1 6VN       0.033367
     57 H29         -3.1480    -5.4270     0.9770 hc         1 6VN       0.033367
     58 H30         -3.3920    -3.9770     1.9460 hc         1 6VN       0.033367
     59 H31         -5.4520     1.5220    -0.1490 ha         1 6VN       0.148000
     60 H33          1.1260    -1.2840     0.4410 hn         1 6VN       0.432800
     61 C23         -0.8360    -4.8160     2.2790 c3         1 6VN      -0.083600
     62 C22         -2.9310    -4.3580     1.0330 c3         1 6VN      -0.083600
     63 C14          6.4270     1.8290    -0.1950 c3         1 6VN      -0.006400
@<TRIPOS>BOND
     1     1     3 ar  
     2     1    20 1   
     3     1    25 ar  
     4     2     4 ar  
     5     2    25 ar  
     6     2    29 1   
     7     3    21 ar  
     8     3    30 1   
     9     4    21 ar  
    10     4    22 1   
    11     5     6 ar  
    12     5     7 ar  
    13     5    63 1   
    14     6     8 ar  
    15     6    31 1   
    16     7     9 ar  
    17     7    32 1   
    18     8    10 ar  
    19     8    33 1   
    20     9    10 ar  
    21     9    34 1   
    22    10    28 1   
    23    11    12 1   
    24    11    13 1   
    25    11    36 1   
    26    11    37 1   
    27    12    14 1   
    28    12    61 1   
    29    12    62 1   
    30    13    15 1   
    31    13    20 1   
    32    13    38 1   
    33    14    16 1   
    34    14    39 1   
    35    14    40 1   
    36    15    16 1   
    37    15    41 1   
    38    15    42 1   
    39    16    17 1   
    40    16    43 1   
    41    17    44 1   
    42    17    45 1   
    43    17    46 1   
    44    18    47 1   
    45    18    48 1   
    46    18    49 1   
    47    18    63 1   
    48    19    50 1   
    49    19    51 1   
    50    19    52 1   
    51    19    63 1   
    52    20    27 1   
    53    21    59 1   
    54    22    23 1   
    55    22    24 1   
    56    25    26 1   
    57    26    27 2   
    58    27    28 1   
    59    28    60 1   
    60    35    63 1   
    61    53    61 1   
    62    54    61 1   
    63    55    61 1   
    64    56    62 1   
    65    57    62 1   
    66    58    62 1   
@<TRIPOS>SUBSTRUCTURE
     1 6VN         1 TEMP              0 ****  ****    0 ROOT
