@<TRIPOS>MOLECULE
6VN
   63    66     1     0     0
SMALL
No Charge or Current Charge


@<TRIPOS>ATOM
      1 C1          -2.3530     0.5870    -0.1040 ca         1 6VN      -0.088200
      2 C2          -2.5420     2.9860     0.0140 ca         1 6VN      -0.037000
      3 C3          -3.7450     0.4310    -0.1850 ca         1 6VN      -0.166000
      4 C4          -3.9560     2.8820    -0.0670 ca         1 6VN      -0.152600
      5 C8           5.0540     1.2560    -0.0370 ca         1 6VN      -0.125300
      6 C9           4.7330    -0.0060     0.5010 ca         1 6VN      -0.078000
      7 C10          4.0170     2.0640    -0.5420 ca         1 6VN      -0.078000
      8 C11          3.3980    -0.4460     0.5360 ca         1 6VN      -0.159000
      9 C12          2.6830     1.6210    -0.5040 ca         1 6VN      -0.159000
     10 C13          2.3620     0.3660     0.0470 ca         1 6VN       0.339000
     11 C15         -1.1000    -2.5300     1.1440 c6         1 6VN      -0.082400
     12 C16         -1.3140    -4.0760     1.1030 c6         1 6VN      -0.044000
     13 C17         -1.5400    -1.8290    -0.1730 c6         1 6VN       0.098300
     14 C18         -0.6110    -4.6610    -0.1640 c6         1 6VN      -0.066400
     15 C19         -0.8270    -2.4410    -1.4080 c6         1 6VN      -0.089400
     16 C20         -1.0540    -3.9740    -1.4880 c6         1 6VN      -0.061700
     17 C21         -0.3190    -4.5880    -2.7080 c3         1 6VN      -0.085100
     18 C24          7.0970     1.8920     1.3350 c3         1 6VN      -0.082600
     19 C25          7.3770     0.8420    -0.9790 c3         1 6VN      -0.082600
     20 N1          -1.3560    -0.3550    -0.0970 na         1 6VN      -0.220600
     21 C5          -4.5450     1.5910    -0.1660 ca         1 6VN      -0.060000
     22 C7          -4.8190     4.1290    -0.0460 c          1 6VN       0.713600
     23 O1          -6.0330     4.0020    -0.1180 o          1 6VN      -0.722000
     24 O           -4.2700     5.2180     0.0410 o          1 6VN      -0.722000
     25 C           -1.7630     1.8190    -0.0080 ca         1 6VN       0.065400
     26 N           -0.3810     1.7300     0.0670 nc         1 6VN      -0.620100
     27 C6          -0.1820     0.4110    -0.0080 cd         1 6VN       0.620700
     28 N2           1.0600    -0.1340     0.0950 nu         1 6VN      -0.915200
     29 H1          -2.0540     3.9540     0.0930 ha         1 6VN       0.144000
     30 H2          -4.2080    -0.5490    -0.2590 ha         1 6VN       0.090000
     31 H3           5.5170    -0.6510     0.8920 ha         1 6VN       0.104000
     32 H4           4.2410     3.0380    -0.9720 ha         1 6VN       0.104000
     33 H5           3.1720    -1.4220     0.9550 ha         1 6VN       0.128500
     34 H6           1.9100     2.2560    -0.9200 ha         1 6VN       0.128500
     35 H7           6.5230     2.7470    -0.5350 hc         1 6VN       0.045700
     36 H8          -1.6550    -2.1000     1.9890 hc         1 6VN       0.047200
     37 H9          -0.0410    -2.3220     1.3420 hc         1 6VN       0.047200
     38 H10         -2.6120    -2.0180    -0.3020 h1         1 6VN       0.071700
     39 H11          0.4780    -4.5550    -0.0550 hc         1 6VN       0.035200
     40 H12         -0.8030    -5.7410    -0.2270 hc         1 6VN       0.035200
     41 H13         -1.2050    -1.9620    -2.3220 hc         1 6VN       0.053700
     42 H14          0.2510    -2.2380    -1.3760 hc         1 6VN       0.053700
     43 H15         -2.1220    -4.1660    -1.6570 hc         1 6VN       0.049700
     44 H16         -0.5220    -5.6620    -2.7920 hc         1 6VN       0.031700
     45 H17         -0.6410    -4.1160    -3.6440 hc         1 6VN       0.031700
     46 H18          0.7670    -4.4600    -2.6230 hc         1 6VN       0.031700
     47 H19          6.4730     2.5550     1.9460 hc         1 6VN       0.030367
     48 H20          7.1620     0.9210     1.8390 hc         1 6VN       0.030367
     49 H21          8.1050     2.3210     1.2890 hc         1 6VN       0.030367
     50 H22          7.4520    -0.1710    -0.5670 hc         1 6VN       0.030367
     51 H23          6.9500     0.7720    -1.9870 hc         1 6VN       0.030367
     52 H24          8.3910     1.2510    -1.0680 hc         1 6VN       0.030367
     53 H25         -1.1570    -4.3240     3.2940 hc         1 6VN       0.033367
     54 H26         -0.8210    -5.8060     2.3870 hc         1 6VN       0.033367
     55 H27          0.3830    -4.5150     2.4480 hc         1 6VN       0.033367
     56 H28         -3.3810    -4.0320     0.2660 hc         1 6VN       0.033367
     57 H29         -2.9860    -5.5230     1.1170 hc         1 6VN       0.033367
     58 H30         -3.3240    -4.0460     2.0270 hc         1 6VN       0.033367
     59 H31         -5.6260     1.4850    -0.2290 ha         1 6VN       0.130000
     60 H33          1.0070    -1.1270     0.2750 hn         1 6VN       0.488000
     61 C23         -0.6930    -4.7170     2.3810 c3         1 6VN      -0.083600
     62 C22         -2.8360    -4.4370     1.1250 c3         1 6VN      -0.083600
     63 C14          6.5030     1.7470    -0.0830 c3         1 6VN      -0.006400
@<TRIPOS>BOND
     1     1     3 ar  
     2     1    20 1   
     3     1    25 ar  
     4     2     4 ar  
     5     2    25 ar  
     6     2    29 1   
     7     3    21 ar  
     8     3    30 1   
     9     4    21 ar  
    10     4    22 1   
    11     5     6 ar  
    12     5     7 ar  
    13     5    63 1   
    14     6     8 ar  
    15     6    31 1   
    16     7     9 ar  
    17     7    32 1   
    18     8    10 ar  
    19     8    33 1   
    20     9    10 ar  
    21     9    34 1   
    22    10    28 1   
    23    11    12 1   
    24    11    13 1   
    25    11    36 1   
    26    11    37 1   
    27    12    14 1   
    28    12    61 1   
    29    12    62 1   
    30    13    15 1   
    31    13    20 1   
    32    13    38 1   
    33    14    16 1   
    34    14    39 1   
    35    14    40 1   
    36    15    16 1   
    37    15    41 1   
    38    15    42 1   
    39    16    17 1   
    40    16    43 1   
    41    17    44 1   
    42    17    45 1   
    43    17    46 1   
    44    18    47 1   
    45    18    48 1   
    46    18    49 1   
    47    18    63 1   
    48    19    50 1   
    49    19    51 1   
    50    19    52 1   
    51    19    63 1   
    52    20    27 1   
    53    21    59 1   
    54    22    23 1   
    55    22    24 1   
    56    25    26 1   
    57    26    27 2   
    58    27    28 1   
    59    28    60 1   
    60    35    63 1   
    61    53    61 1   
    62    54    61 1   
    63    55    61 1   
    64    56    62 1   
    65    57    62 1   
    66    58    62 1   
@<TRIPOS>SUBSTRUCTURE
     1 6VN         1 TEMP              0 ****  ****    0 ROOT
