@<TRIPOS>MOLECULE
6VO
   33    32     1     0     0
SMALL
bcc


@<TRIPOS>ATOM
      1 C13          0.3860     0.1840     0.2030 c3         1 6VO       0.141500
      2 C14          1.6430    -0.5060    -0.3470 c3         1 6VO      -0.113400
      3 C16          4.1320    -0.7360    -0.4560 c3         1 6VO      -0.088600
      4 C20          3.1260     1.5500    -0.2570 c3         1 6VO      -0.088600
      5 C15          2.9770     0.0790     0.1190 c3         1 6VO      -0.062700
      6 N3           0.3310     0.2760     1.6550 n8         1 6VO      -0.871800
      7 C21         -0.8610    -0.5120    -0.3600 c3         1 6VO       0.167100
      8 C22         -2.2190     0.1930    -0.1200 c3         1 6VO       0.136800
      9 C23         -3.2410    -0.3660    -1.1120 c3         1 6VO      -0.120600
     10 O6          -2.6160    -0.1350     1.2070 oh         1 6VO      -0.593800
     11 C24         -2.1230     1.7050    -0.2850 c3         1 6VO      -0.120600
     12 O5          -0.9420    -1.8510     0.0830 oh         1 6VO      -0.606800
     13 H1           0.3750     1.2070    -0.1830 h1         1 6VO       0.056700
     14 H2           1.6120    -1.5670    -0.0800 hc         1 6VO       0.050200
     15 H3           1.6130    -0.4670    -1.4430 hc         1 6VO       0.050200
     16 H4           5.0940    -0.3790    -0.0860 hc         1 6VO       0.033033
     17 H5           4.0440    -1.7910    -0.1900 hc         1 6VO       0.033033
     18 H6           4.1510    -0.6720    -1.5460 hc         1 6VO       0.033033
     19 H7           3.0370     1.6830    -1.3380 hc         1 6VO       0.033033
     20 H8           2.3690     2.1800     0.2150 hc         1 6VO       0.033033
     21 H9           4.1010     1.9370     0.0440 hc         1 6VO       0.033033
     22 H10          3.0330    -0.0050     1.2110 hc         1 6VO       0.037700
     23 H11          0.4770    -0.6420     2.0590 hn         1 6VO       0.337300
     24 H12          1.1030     0.8410     1.9880 hn         1 6VO       0.337300
     25 H14         -0.7210    -0.5450    -1.4480 h1         1 6VO       0.057700
     26 H15         -3.3040    -1.4530    -1.0540 hc         1 6VO       0.044367
     27 H16         -4.2360     0.0420    -0.9140 hc         1 6VO       0.044367
     28 H17         -2.9810    -0.0970    -2.1360 hc         1 6VO       0.044367
     29 H18         -3.5770    -0.0980     1.2560 ho         1 6VO       0.404000
     30 H19         -1.7090     1.9740    -1.2580 hc         1 6VO       0.044367
     31 H20         -3.1160     2.1560    -0.2150 hc         1 6VO       0.044367
     32 H21         -1.4960     2.1490     0.4880 hc         1 6VO       0.044367
     33 H22         -1.4690    -1.8360     0.8920 ho         1 6VO       0.425000
@<TRIPOS>BOND
     1     1     2 1   
     2     1     6 1   
     3     1     7 1   
     4     1    13 1   
     5     2     5 1   
     6     2    14 1   
     7     2    15 1   
     8     3     5 1   
     9     3    16 1   
    10     3    17 1   
    11     3    18 1   
    12     4     5 1   
    13     4    19 1   
    14     4    20 1   
    15     4    21 1   
    16     5    22 1   
    17     6    23 1   
    18     6    24 1   
    19     7     8 1   
    20     7    12 1   
    21     7    25 1   
    22     8     9 1   
    23     8    10 1   
    24     8    11 1   
    25     9    26 1   
    26     9    27 1   
    27     9    28 1   
    28    10    29 1   
    29    11    30 1   
    30    11    31 1   
    31    11    32 1   
    32    12    33 1   
@<TRIPOS>SUBSTRUCTURE
     1 6VO         1 TEMP              0 ****  ****    0 ROOT
