@<TRIPOS>MOLECULE
6VO
   33    32     1     0     0
SMALL
No Charge or Current Charge


@<TRIPOS>ATOM
      1 C13          0.3180     0.1030     0.1470 c3         1 6VO       0.141500
      2 C14          1.6730    -0.4910    -0.3290 c3         1 6VO      -0.113400
      3 C16          4.2230    -0.5770    -0.2230 c3         1 6VO      -0.088600
      4 C20          3.0620     1.6840    -0.1340 c3         1 6VO      -0.088600
      5 C15          2.9580     0.1840     0.2350 c3         1 6VO      -0.062700
      6 N3           0.2000    -0.0150     1.6270 n8         1 6VO      -0.982200
      7 C21         -0.9180    -0.5350    -0.5940 c3         1 6VO       0.190300
      8 C22         -2.2910     0.1760    -0.2610 c3         1 6VO       0.160000
      9 C23         -3.4910    -0.5380    -0.9380 c3         1 6VO      -0.120600
     10 O6          -2.4940     0.1240     1.1540 oh         1 6VO      -0.656000
     11 C24         -2.2930     1.6700    -0.6770 c3         1 6VO      -0.120600
     12 O5          -0.9990    -1.9360    -0.2510 oh         1 6VO      -0.669000
     13 H1           0.3220     1.1710    -0.1030 h1         1 6VO       0.056700
     14 H2           1.6980    -1.5590    -0.0790 hc         1 6VO       0.050200
     15 H3           1.7070    -0.4370    -1.4250 hc         1 6VO       0.050200
     16 H4           5.1240    -0.1350     0.2180 hc         1 6VO       0.033033
     17 H5           4.1780    -1.6280     0.0880 hc         1 6VO       0.033033
     18 H6           4.3240    -0.5460    -1.3150 hc         1 6VO       0.033033
     19 H7           3.0310     1.8220    -1.2220 hc         1 6VO       0.033033
     20 H8           2.2440     2.2610     0.3110 hc         1 6VO       0.033033
     21 H9           4.0030     2.1080     0.2360 hc         1 6VO       0.033033
     22 H10          2.9310     0.1160     1.3300 hc         1 6VO       0.037700
     23 H11          0.5720    -0.9310     1.9060 hn         1 6VO       0.392500
     24 H12          0.8690     0.6350     2.0580 hn         1 6VO       0.392500
     25 H14         -0.7470    -0.4330    -1.6740 h1         1 6VO       0.057700
     26 H15         -3.5950    -1.5720    -0.5910 hc         1 6VO       0.044367
     27 H16         -4.4320    -0.0200    -0.7160 hc         1 6VO       0.044367
     28 H17         -3.3640    -0.5560    -2.0280 hc         1 6VO       0.044367
     29 H18         -1.5700     0.1590     1.5300 ho         1 6VO       0.443000
     30 H19         -2.0430     1.7760    -1.7400 hc         1 6VO       0.044367
     31 H20         -3.2800     2.1190    -0.5170 hc         1 6VO       0.044367
     32 H21         -1.5730     2.2560    -0.0950 hc         1 6VO       0.044367
     33 H22         -1.3530    -1.9570     0.6640 ho         1 6VO       0.464000
@<TRIPOS>BOND
     1     1     2 1   
     2     1     6 1   
     3     1     7 1   
     4     1    13 1   
     5     2     5 1   
     6     2    14 1   
     7     2    15 1   
     8     3     5 1   
     9     3    16 1   
    10     3    17 1   
    11     3    18 1   
    12     4     5 1   
    13     4    19 1   
    14     4    20 1   
    15     4    21 1   
    16     5    22 1   
    17     6    23 1   
    18     6    24 1   
    19     7     8 1   
    20     7    12 1   
    21     7    25 1   
    22     8     9 1   
    23     8    10 1   
    24     8    11 1   
    25     9    26 1   
    26     9    27 1   
    27     9    28 1   
    28    10    29 1   
    29    11    30 1   
    30    11    31 1   
    31    11    32 1   
    32    12    33 1   
@<TRIPOS>SUBSTRUCTURE
     1 6VO         1 TEMP              0 ****  ****    0 ROOT
