@<TRIPOS>MOLECULE
6VP
   16    16     1     0     0
SMALL
bcc


@<TRIPOS>ATOM
      1 NAA         -3.0840    -2.2380     0.0880 n1         1 6VP      -0.336800
      2 CAE         -2.2460    -1.4480     0.0830 cg         1 6VP       0.237800
      3 CAJ         -1.2080    -0.4740     0.0780 ca         1 6VP      -0.069000
      4 CAH          0.1200    -0.8730     0.0120 ca         1 6VP       0.015000
      5 CAI         -1.5470     0.8880     0.1380 ca         1 6VP       0.224100
      6 OAB         -2.8330     1.1890     0.1980 oh         1 6VP      -0.460100
      7 CAF         -0.5280     1.8410     0.1300 ca         1 6VP      -0.248000
      8 CAG          0.7900     1.4470     0.0660 ca         1 6VP       0.002000
      9 CAK          1.1080     0.0930     0.0070 ca         1 6VP      -0.231200
     10 NAL          2.4950    -0.3140    -0.0610 no         1 6VP       0.323200
     11 OAD          2.7380    -1.4980    -0.1170 o          1 6VP      -0.207000
     12 OAC          3.3400     0.5500    -0.0590 o          1 6VP      -0.207000
     13 H1           0.3560    -1.9260    -0.0350 ha         1 6VP       0.184000
     14 H2          -2.9750     2.1440     0.2330 ho         1 6VP       0.447000
     15 H3          -0.7710     2.8940     0.1750 ha         1 6VP       0.152000
     16 H4           1.5640     2.2000     0.0610 ha         1 6VP       0.174000
@<TRIPOS>BOND
     1     1     2 3   
     2     2     3 1   
     3     3     4 ar  
     4     3     5 ar  
     5     4     9 ar  
     6     4    13 1   
     7     5     6 1   
     8     5     7 ar  
     9     6    14 1   
    10     7     8 ar  
    11     7    15 1   
    12     8     9 ar  
    13     8    16 1   
    14     9    10 1   
    15    10    11 1   
    16    10    12 1   
@<TRIPOS>SUBSTRUCTURE
     1 6VP         1 TEMP              0 ****  ****    0 ROOT
