@<TRIPOS>MOLECULE
6VP
   16    16     1     0     0
SMALL
No Charge or Current Charge


@<TRIPOS>ATOM
      1 NAA         -3.0900    -2.3390     0.0840 n1         1 6VP      -0.426000
      2 CAE         -2.2730    -1.5050     0.0820 cg         1 6VP       0.327000
      3 CAJ         -1.2530    -0.4930     0.0770 ca         1 6VP      -0.069000
      4 CAH          0.0990    -0.8830     0.0120 ca         1 6VP       0.033000
      5 CAI         -1.5860     0.8750     0.1380 ca         1 6VP       0.224100
      6 OAB         -2.8890     1.2810     0.2020 oh         1 6VP      -0.499100
      7 CAF         -0.5700     1.8430     0.1320 ca         1 6VP      -0.230000
      8 CAG          0.7810     1.4590     0.0670 ca         1 6VP       0.020000
      9 CAK          1.1260     0.0900     0.0060 ca         1 6VP      -0.231200
     10 NAL          2.5610    -0.3250    -0.0640 no         1 6VP       0.703200
     11 OAD          2.8170    -1.5350    -0.1160 o          1 6VP      -0.397000
     12 OAC          3.4270     0.5590    -0.0670 o          1 6VP      -0.397000
     13 H1           0.3430    -1.9440    -0.0350 ha         1 6VP       0.166000
     14 H2          -2.9070     2.2600     0.2370 ho         1 6VP       0.486000
     15 H3          -0.8160     2.9010     0.1790 ha         1 6VP       0.134000
     16 H4           1.5500     2.2320     0.0640 ha         1 6VP       0.156000
@<TRIPOS>BOND
     1     1     2 3   
     2     2     3 1   
     3     3     4 ar  
     4     3     5 ar  
     5     4     9 ar  
     6     4    13 1   
     7     5     6 1   
     8     5     7 ar  
     9     6    14 1   
    10     7     8 ar  
    11     7    15 1   
    12     8     9 ar  
    13     8    16 1   
    14     9    10 1   
    15    10    11 1   
    16    10    12 1   
@<TRIPOS>SUBSTRUCTURE
     1 6VP         1 TEMP              0 ****  ****    0 ROOT
