@<TRIPOS>MOLECULE
6VR
   65    67     1     0     0
SMALL
abcg2


@<TRIPOS>ATOM
      1 C4           1.3730     1.4390    -1.3640 c3         1 6VR       0.104000
      2 C6           3.2700     1.5150     0.2160 c6         1 6VR       0.079700
      3 C7           3.5820     2.6180     1.2270 c6         1 6VR      -0.089400
      4 C8           5.0890     2.8590     1.2670 c6         1 6VR      -0.111400
      5 C15         -1.0880     2.1780     0.6390 ca         1 6VR       0.161900
      6 C17         -3.1120     1.1870     0.7030 ca         1 6VR       0.199300
      7 C22         -1.6030    -3.1560    -0.2570 cc         1 6VR       0.087300
      8 C24         -1.3990    -4.2580    -2.1850 cd         1 6VR      -0.190000
      9 C28         -5.2960     0.3480     1.5930 c3         1 6VR      -0.078767
     10 C2           1.8400     0.3070    -2.2830 c3         1 6VR      -0.083700
     11 C3           1.3860     0.6140    -3.7060 c3         1 6VR      -0.089600
     12 N5           1.8310     1.3090     0.0130 n          1 6VR      -0.398800
     13 C9           5.8370     1.5540     1.5240 c6         1 6VR       0.147800
     14 N10          5.5020     0.4940     0.5840 n7         1 6VR      -0.844400
     15 C11          4.0720     0.2430     0.5310 c6         1 6VR       0.135800
     16 C12          1.0390     0.9180     1.0300 c          1 6VR       0.629700
     17 O13          1.4660     0.5510     2.1200 o          1 6VR      -0.603100
     18 C14         -0.4400     0.9800     0.8330 ca         1 6VR      -0.332600
     19 N16         -2.4120     2.3060     0.5760 nb         1 6VR      -0.220000
     20 N18         -2.5960    -0.0170     0.8970 nb         1 6VR      -0.266000
     21 C19         -1.2770    -0.1500     0.9840 ca         1 6VR       0.428900
     22 N20         -0.7790    -1.3790     1.2090 nu         1 6VR      -0.918100
     23 C23         -1.0620    -4.2760    -0.7960 cd         1 6VR      -0.174000
     24 C25         -2.1130    -3.1250    -2.3760 cc         1 6VR       0.122900
     25 O26         -2.2460    -2.4520    -1.2140 os         1 6VR      -0.222000
     26 C29         -5.1310     2.6870     0.7470 c3         1 6VR      -0.078767
     27 C30         -4.9700     0.7680    -0.8510 c3         1 6VR      -0.078767
     28 H1           1.7260     2.3980    -1.7530 h1         1 6VR       0.054700
     29 H2           0.2860     1.4740    -1.3910 h1         1 6VR       0.054700
     30 H3           3.6320     1.8730    -0.7540 h1         1 6VR       0.040700
     31 H4           3.0540     3.5330     0.9470 hc         1 6VR       0.058200
     32 H5           3.2320     2.3310     2.2210 hc         1 6VR       0.058200
     33 H6           5.4200     3.2850     0.3140 hc         1 6VR       0.043200
     34 H7           5.3320     3.5930     2.0400 hc         1 6VR       0.043200
     35 H8          -0.5090     3.0910     0.5280 h4         1 6VR       0.022100
     36 H9          -2.5660    -2.3920     1.4940 h1         1 6VR       0.081200
     37 H10         -1.1130    -3.3360     1.7780 h1         1 6VR       0.081200
     38 H11         -1.1420    -4.9880    -2.9340 ha         1 6VR       0.143000
     39 H12         -5.0320     0.6370     2.6120 hc         1 6VR       0.039700
     40 H13         -6.3810     0.4230     1.4960 hc         1 6VR       0.039700
     41 H14         -5.0160    -0.6950     1.4550 hc         1 6VR       0.039700
     42 H15          0.2310    -1.0800    -1.8140 hc         1 6VR       0.036867
     43 H16          1.6640    -1.8400    -2.4960 hc         1 6VR       0.036867
     44 H17          1.6730    -1.3120    -0.8250 hc         1 6VR       0.036867
     45 H18          2.9360     0.2790    -2.2820 hc         1 6VR       0.048700
     46 H19          1.7790     1.5700    -4.0560 hc         1 6VR       0.036867
     47 H20          1.7260    -0.1560    -4.3990 hc         1 6VR       0.036867
     48 H21          0.2960     0.6580    -3.7700 hc         1 6VR       0.036867
     49 H22          6.9160     1.7190     1.4910 h1         1 6VR       0.056200
     50 H23          5.6030     1.1970     2.5330 h1         1 6VR       0.056200
     51 H24          5.8320     0.7550    -0.3390 hn         1 6VR       0.399000
     52 H26          3.7620    -0.1670     1.4940 h1         1 6VR       0.067200
     53 H27          3.8770    -0.5240    -0.2230 h1         1 6VR       0.067200
     54 H28          0.2210    -1.4940     1.2340 hn         1 6VR       0.506000
     55 H29         -0.4900    -5.0230    -0.2700 ha         1 6VR       0.141000
     56 H30         -2.5760    -2.6850    -3.2450 h4         1 6VR       0.052100
     57 H31         -4.7050     3.3710     0.0150 hc         1 6VR       0.039700
     58 H32         -6.2160     2.7080     0.6370 hc         1 6VR       0.039700
     59 H33         -4.8900     3.0720     1.7400 hc         1 6VR       0.039700
     60 H34         -4.6250    -0.2550    -1.0090 hc         1 6VR       0.039700
     61 H35         -6.0510     0.7890    -1.0000 hc         1 6VR       0.039700
     62 H36         -4.5130     1.4010    -1.6150 hc         1 6VR       0.039700
     63 C27         -4.6220     1.2580     0.5620 c3         1 6VR      -0.083300
     64 C21         -1.5620    -2.5930     1.1210 c3         1 6VR       0.202500
     65 C1           1.3230    -1.0510    -1.8240 c3         1 6VR      -0.089600
@<TRIPOS>BOND
     1     1    10 1   
     2     1    12 1   
     3     1    28 1   
     4     1    29 1   
     5     2     3 1   
     6     2    12 1   
     7     2    15 1   
     8     2    30 1   
     9     3     4 1   
    10     3    31 1   
    11     3    32 1   
    12     4    13 1   
    13     4    33 1   
    14     4    34 1   
    15     5    18 ar  
    16     5    19 ar  
    17     5    35 1   
    18     6    19 ar  
    19     6    20 ar  
    20     6    63 1   
    21     7    23 2   
    22     7    25 1   
    23     7    64 1   
    24     8    23 1   
    25     8    24 2   
    26     8    38 1   
    27     9    39 1   
    28     9    40 1   
    29     9    41 1   
    30     9    63 1   
    31    10    11 1   
    32    10    45 1   
    33    10    65 1   
    34    11    46 1   
    35    11    47 1   
    36    11    48 1   
    37    12    16 1   
    38    13    14 1   
    39    13    49 1   
    40    13    50 1   
    41    14    15 1   
    42    14    51 1   
    43    15    52 1   
    44    15    53 1   
    45    16    17 2   
    46    16    18 1   
    47    18    21 ar  
    48    20    21 ar  
    49    21    22 1   
    50    22    54 1   
    51    22    64 1   
    52    23    55 1   
    53    24    25 1   
    54    24    56 1   
    55    26    57 1   
    56    26    58 1   
    57    26    59 1   
    58    26    63 1   
    59    27    60 1   
    60    27    61 1   
    61    27    62 1   
    62    27    63 1   
    63    36    64 1   
    64    37    64 1   
    65    42    65 1   
    66    43    65 1   
    67    44    65 1   
@<TRIPOS>SUBSTRUCTURE
     1 6VR         1 TEMP              0 ****  ****    0 ROOT
