@<TRIPOS>MOLECULE
6VR
   65    67     1     0     0
SMALL
No Charge or Current Charge


@<TRIPOS>ATOM
      1 C4           1.3520     1.5040    -1.3940 c3         1 6VR       0.104000
      2 C6           3.2990     1.4860     0.2260 c6         1 6VR       0.079700
      3 C7           3.5970     2.4830     1.3740 c6         1 6VR      -0.089400
      4 C8           5.1250     2.7040     1.5140 c6         1 6VR      -0.111400
      5 C15         -1.0660     2.0540     0.5350 ca         1 6VR       0.161900
      6 C17         -3.1640     1.1160     0.6860 ca         1 6VR       0.199300
      7 C22         -1.5060    -3.0950    -0.2150 cc         1 6VR       0.087300
      8 C24         -1.0780    -3.7440    -2.3080 cd         1 6VR      -0.190000
      9 C28         -5.3660     0.9820     1.9340 c3         1 6VR      -0.078767
     10 C2           1.7990     0.4170    -2.4040 c3         1 6VR      -0.083700
     11 C3           1.3770     0.7950    -3.8420 c3         1 6VR      -0.089600
     12 N5           1.8340     1.2910     0.0020 n          1 6VR      -0.398800
     13 C9           5.8800     1.3570     1.6520 c6         1 6VR       0.147800
     14 N10          5.5890     0.4610     0.5060 n7         1 6VR      -0.844400
     15 C11          4.1330     0.1720     0.3650 c6         1 6VR       0.135800
     16 C12          1.0040     0.6630     0.9690 c          1 6VR       0.629700
     17 O13          1.4800     0.0610     1.9220 o          1 6VR      -0.603100
     18 C14         -0.4800     0.8210     0.8710 ca         1 6VR      -0.332600
     19 N16         -2.3990     2.2020     0.4320 nb         1 6VR      -0.220000
     20 N18         -2.6880    -0.0930     1.0570 nb         1 6VR      -0.266000
     21 C19         -1.3560    -0.2300     1.1600 ca         1 6VR       0.428900
     22 N20         -0.8870    -1.4750     1.5490 nu         1 6VR      -0.918100
     23 C23         -0.5830    -3.7460    -0.9880 cd         1 6VR      -0.174000
     24 C25         -2.2810    -3.0930    -2.2890 cc         1 6VR       0.122900
     25 O26         -2.5630    -2.6900    -1.0020 os         1 6VR      -0.222000
     26 C29         -5.1430     2.6620     0.0690 c3         1 6VR      -0.078767
     27 C30         -5.2270     0.2050    -0.4760 c3         1 6VR      -0.078767
     28 H1           1.7250     2.4790    -1.7350 h1         1 6VR       0.054700
     29 H2           0.2610     1.5580    -1.4400 h1         1 6VR       0.054700
     30 H3           3.6860     1.9740    -0.6810 h1         1 6VR       0.040700
     31 H4           3.0950     3.4410     1.1830 hc         1 6VR       0.058200
     32 H5           3.1960     2.1000     2.3220 hc         1 6VR       0.058200
     33 H6           5.5030     3.2500     0.6390 hc         1 6VR       0.043200
     34 H7           5.3320     3.3360     2.3880 hc         1 6VR       0.043200
     35 H8          -0.4620     2.9380     0.3360 h4         1 6VR       0.022100
     36 H9          -2.5520    -2.8050     1.6300 h1         1 6VR       0.081200
     37 H10         -0.9720    -3.5850     1.7890 h1         1 6VR       0.081200
     38 H11         -0.5990    -4.1720    -3.1830 ha         1 6VR       0.143000
     39 H12         -4.9930     1.6900     2.6840 hc         1 6VR       0.039700
     40 H13         -6.4560     1.0920     1.8760 hc         1 6VR       0.039700
     41 H14         -5.1530    -0.0330     2.2920 hc         1 6VR       0.039700
     42 H15          0.1680    -0.9790    -1.9760 hc         1 6VR       0.036867
     43 H16          1.5710    -1.7330    -2.7640 hc         1 6VR       0.036867
     44 H17          1.6460    -1.3030    -1.0480 hc         1 6VR       0.036867
     45 H18          2.8940     0.3710    -2.3980 hc         1 6VR       0.048700
     46 H19          1.7960     1.7680    -4.1250 hc         1 6VR       0.036867
     47 H20          1.7380     0.0500    -4.5610 hc         1 6VR       0.036867
     48 H21          0.2850     0.8540    -3.9260 hc         1 6VR       0.036867
     49 H22          6.9630     1.5460     1.7090 h1         1 6VR       0.056200
     50 H23          5.5830     0.8650     2.5910 h1         1 6VR       0.056200
     51 H24          5.9130     0.9230    -0.3530 hn         1 6VR       0.399000
     52 H26          3.7990    -0.3950     1.2460 h1         1 6VR       0.067200
     53 H27          3.9670    -0.4680    -0.5130 h1         1 6VR       0.067200
     54 H28          0.1100    -1.4710     1.7810 hn         1 6VR       0.506000
     55 H29          0.3530    -4.1740    -0.6440 ha         1 6VR       0.141000
     56 H30         -2.9970    -2.8600    -3.0650 h4         1 6VR       0.052100
     57 H31         -4.7140     2.8950    -0.9140 hc         1 6VR       0.039700
     58 H32         -6.2340     2.7250    -0.0230 hc         1 6VR       0.039700
     59 H33         -4.8260     3.4390     0.7750 hc         1 6VR       0.039700
     60 H34         -5.0230    -0.8220    -0.1480 hc         1 6VR       0.039700
     61 H35         -6.3110     0.2980    -0.6160 hc         1 6VR       0.039700
     62 H36         -4.7460     0.3480    -1.4510 hc         1 6VR       0.039700
     63 C27         -4.7050     1.2460     0.5530 c3         1 6VR      -0.083300
     64 C21         -1.5150    -2.7850     1.2650 c3         1 6VR       0.202500
     65 C1           1.2630    -0.9840    -2.0240 c3         1 6VR      -0.089600
@<TRIPOS>BOND
     1     1    10 1   
     2     1    12 1   
     3     1    28 1   
     4     1    29 1   
     5     2     3 1   
     6     2    12 1   
     7     2    15 1   
     8     2    30 1   
     9     3     4 1   
    10     3    31 1   
    11     3    32 1   
    12     4    13 1   
    13     4    33 1   
    14     4    34 1   
    15     5    18 ar  
    16     5    19 ar  
    17     5    35 1   
    18     6    19 ar  
    19     6    20 ar  
    20     6    63 1   
    21     7    23 2   
    22     7    25 1   
    23     7    64 1   
    24     8    23 1   
    25     8    24 2   
    26     8    38 1   
    27     9    39 1   
    28     9    40 1   
    29     9    41 1   
    30     9    63 1   
    31    10    11 1   
    32    10    45 1   
    33    10    65 1   
    34    11    46 1   
    35    11    47 1   
    36    11    48 1   
    37    12    16 1   
    38    13    14 1   
    39    13    49 1   
    40    13    50 1   
    41    14    15 1   
    42    14    51 1   
    43    15    52 1   
    44    15    53 1   
    45    16    17 2   
    46    16    18 1   
    47    18    21 ar  
    48    20    21 ar  
    49    21    22 1   
    50    22    54 1   
    51    22    64 1   
    52    23    55 1   
    53    24    25 1   
    54    24    56 1   
    55    26    57 1   
    56    26    58 1   
    57    26    59 1   
    58    26    63 1   
    59    27    60 1   
    60    27    61 1   
    61    27    62 1   
    62    27    63 1   
    63    36    64 1   
    64    37    64 1   
    65    42    65 1   
    66    43    65 1   
    67    44    65 1   
@<TRIPOS>SUBSTRUCTURE
     1 6VR         1 TEMP              0 ****  ****    0 ROOT
