@<TRIPOS>MOLECULE
6VS
   83    85     1     0     0
SMALL
No Charge or Current Charge


@<TRIPOS>ATOM
      1 C4          -2.5810     3.9450     0.1550 c3         1 6VS      -0.103400
      2 C5          -3.5420     2.7460     0.2150 c3         1 6VS       0.231800
      3 C7          -3.2920     0.2060     0.3930 ca         1 6VS       0.425900
      4 C20          1.3370    -1.7870     0.3450 c6         1 6VS       0.111700
      5 C22          1.5720    -2.2370     1.8190 c6         1 6VS       0.141800
      6 C24          3.8640    -1.2890     1.8190 c6         1 6VS       0.160800
      7 C28          4.6670     0.3440     0.0320 c          1 6VS       0.611100
      8 C1          -2.8860     7.6550    -0.1360 c3         1 6VS       0.147900
      9 C3          -3.3270     5.2850     0.0290 c3         1 6VS       0.162600
     10 N6          -2.7840     1.4920     0.3240 nu         1 6VS      -0.917100
     11 N8          -4.6240     0.0690     0.2990 nb         1 6VS      -0.281000
     12 C9          -5.1300    -1.1820     0.3860 ca         1 6VS       0.200300
     13 N10         -4.3930    -2.3010     0.5740 nb         1 6VS      -0.225000
     14 C11         -3.0590    -2.1530     0.6610 ca         1 6VS       0.162900
     15 C12         -2.4440    -0.8950     0.5460 ca         1 6VS      -0.336600
     16 O14         -0.5100     0.1400     1.3820 o          1 6VS      -0.612100
     17 N15         -0.1110    -1.6590    -0.0050 n          1 6VS      -0.399800
     18 C16         -0.5580    -2.3630    -1.2430 c3         1 6VS       0.105000
     19 C18         -0.4930    -2.5800    -3.7810 c3         1 6VS      -0.090100
     20 C19         -0.5420    -0.2620    -2.7260 c3         1 6VS      -0.090100
     21 N23          3.0160    -2.4740     2.1020 n7         1 6VS      -0.869400
     22 C25          3.6960    -0.8200     0.3530 c6         1 6VS      -0.137700
     23 C27          2.2090    -0.5530    -0.0240 c6         1 6VS      -0.082400
     24 N30          6.0520     0.0890    -0.1530 n          1 6VS      -0.417800
     25 C31          6.5650    -1.2720    -0.5360 c6         1 6VS       0.059500
     26 C32          8.1070    -1.4370    -0.4950 c6         1 6VS       0.135100
     27 O33          8.7590    -0.3130    -1.1090 os         1 6VS      -0.444000
     28 C34          8.4810     0.9150    -0.4160 c6         1 6VS       0.135100
     29 C35          6.9670     1.2370    -0.4680 c6         1 6VS       0.059500
     30 C36         -6.6720    -1.3200     0.2740 c3         1 6VS      -0.085300
     31 C37         -7.1470    -0.7420    -1.0880 c3         1 6VS      -0.078100
     32 C38         -7.1440    -2.8040     0.3580 c3         1 6VS      -0.078100
     33 C39         -7.3460    -0.5330     1.4310 c3         1 6VS      -0.078100
     34 H1          -1.9640     3.9630     1.0620 hc         1 6VS       0.062200
     35 H2          -1.9070     3.8280    -0.7020 hc         1 6VS       0.062200
     36 H3          -4.2120     2.8580     1.0790 h1         1 6VS       0.053200
     37 H4          -4.1610     2.7320    -0.6930 h1         1 6VS       0.053200
     38 H5           1.0320    -1.7240    -2.5580 hc         1 6VS       0.050700
     39 H6           1.7300    -2.6130    -0.2650 h1         1 6VS       0.058700
     40 H7           1.1890    -1.4690     2.5070 h1         1 6VS       0.051200
     41 H8           1.0070    -3.1610     2.0090 h1         1 6VS       0.051200
     42 H9           3.5870    -0.4690     2.4980 h1         1 6VS       0.040700
     43 H10          4.9170    -1.5390     2.0180 h1         1 6VS       0.040700
     44 H11         -3.4740     7.7540    -1.0580 h1         1 6VS       0.029033
     45 H12         -3.5350     7.8890     0.7180 h1         1 6VS       0.029033
     46 H13         -2.0780     8.3970    -0.1650 h1         1 6VS       0.029033
     47 H14         -3.9340     5.2840    -0.8860 h1         1 6VS       0.022200
     48 H15         -3.9940     5.4180     0.8910 h1         1 6VS       0.022200
     49 H16         -1.8110     1.5550     0.6390 hn         1 6VS       0.517000
     50 H17         -2.4790    -3.0600     0.8260 h4         1 6VS       0.021100
     51 H18         -1.6480    -2.4200    -1.3020 h1         1 6VS       0.055700
     52 H19         -0.1960    -3.3990    -1.1930 h1         1 6VS       0.055700
     53 H20         -0.0980    -2.1570    -4.7130 hc         1 6VS       0.037367
     54 H21         -0.1130    -3.6050    -3.6880 hc         1 6VS       0.037367
     55 H22         -1.5860    -2.6250    -3.8620 hc         1 6VS       0.037367
     56 H23         -1.6370    -0.2050    -2.7130 hc         1 6VS       0.037367
     57 H24         -0.1580     0.3710    -1.9180 hc         1 6VS       0.037367
     58 H25         -0.1890     0.1600    -3.6750 hc         1 6VS       0.037367
     59 H26          3.1250    -2.7330     3.0920 hn         1 6VS       0.418000
     60 H28          4.0360    -1.6790    -0.2370 hc         1 6VS       0.067700
     61 H29          2.1310    -0.3270    -1.0940 hc         1 6VS       0.072200
     62 H30          1.8560     0.3380     0.5100 hc         1 6VS       0.072200
     63 H31          6.1440    -2.0350     0.1330 h1         1 6VS       0.063950
     64 H32          6.2160    -1.5020    -1.5520 h1         1 6VS       0.063950
     65 H33          8.4450    -1.5220     0.5480 h1         1 6VS       0.052950
     66 H34          8.3990    -2.3570    -1.0200 h1         1 6VS       0.052950
     67 H35          8.8090     0.8220     0.6300 h1         1 6VS       0.052950
     68 H36          9.0540     1.7310    -0.8790 h1         1 6VS       0.052950
     69 H37          6.7250     1.6050    -1.4750 h1         1 6VS       0.063950
     70 H38          6.7690     2.0630     0.2290 h1         1 6VS       0.063950
     71 H39         -6.6590    -1.2610    -1.9220 hc         1 6VS       0.039589
     72 H40         -8.2320    -0.8560    -1.2070 hc         1 6VS       0.039589
     73 H41         -6.9150     0.3270    -1.1740 hc         1 6VS       0.039589
     74 H42         -6.7090    -3.4050    -0.4510 hc         1 6VS       0.039589
     75 H43         -6.8590    -3.2580     1.3150 hc         1 6VS       0.039589
     76 H44         -8.2350    -2.8730     0.2710 hc         1 6VS       0.039589
     77 H45         -8.4380    -0.6350     1.3930 hc         1 6VS       0.039589
     78 H46         -7.0050    -0.9060     2.4040 hc         1 6VS       0.039589
     79 H47         -7.1110     0.5370     1.3780 hc         1 6VS       0.039589
     80 C13         -0.9620    -0.7370     0.6580 c          1 6VS       0.634700
     81 O2          -2.3420     6.3300    -0.0170 os         1 6VS      -0.452000
     82 O29          4.2560     1.4980     0.0420 o          1 6VS      -0.598100
     83 C17         -0.0650    -1.7260    -2.5680 c3         1 6VS      -0.085700
@<TRIPOS>BOND
     1     1     2 1   
     2     1     9 1   
     3     1    34 1   
     4     1    35 1   
     5     2    10 1   
     6     2    36 1   
     7     2    37 1   
     8     3    10 1   
     9     3    11 ar  
    10     3    15 ar  
    11     4     5 1   
    12     4    17 1   
    13     4    23 1   
    14     4    39 1   
    15     5    21 1   
    16     5    40 1   
    17     5    41 1   
    18     6    21 1   
    19     6    22 1   
    20     6    42 1   
    21     6    43 1   
    22     7    22 1   
    23     7    24 1   
    24     7    82 2   
    25     8    44 1   
    26     8    45 1   
    27     8    46 1   
    28     8    81 1   
    29     9    47 1   
    30     9    48 1   
    31     9    81 1   
    32    10    49 1   
    33    11    12 ar  
    34    12    13 ar  
    35    12    30 1   
    36    13    14 ar  
    37    14    15 ar  
    38    14    50 1   
    39    15    80 1   
    40    16    80 2   
    41    17    18 1   
    42    17    80 1   
    43    18    51 1   
    44    18    52 1   
    45    18    83 1   
    46    19    53 1   
    47    19    54 1   
    48    19    55 1   
    49    19    83 1   
    50    20    56 1   
    51    20    57 1   
    52    20    58 1   
    53    20    83 1   
    54    21    59 1   
    55    22    23 1   
    56    22    60 1   
    57    23    61 1   
    58    23    62 1   
    59    24    25 1   
    60    24    29 1   
    61    25    26 1   
    62    25    63 1   
    63    25    64 1   
    64    26    27 1   
    65    26    65 1   
    66    26    66 1   
    67    27    28 1   
    68    28    29 1   
    69    28    67 1   
    70    28    68 1   
    71    29    69 1   
    72    29    70 1   
    73    30    31 1   
    74    30    32 1   
    75    30    33 1   
    76    31    71 1   
    77    31    72 1   
    78    31    73 1   
    79    32    74 1   
    80    32    75 1   
    81    32    76 1   
    82    33    77 1   
    83    33    78 1   
    84    33    79 1   
    85    38    83 1   
@<TRIPOS>SUBSTRUCTURE
     1 6VS         1 TEMP              0 ****  ****    0 ROOT
