@<TRIPOS>MOLECULE
6VS
   83    85     1     0     0
SMALL
abcg2


@<TRIPOS>ATOM
      1 C4          -2.5350     3.8650     0.0050 c3         1 6VS      -0.103400
      2 C5          -3.4090     2.6310     0.1530 c3         1 6VS       0.231800
      3 C7          -3.0930     0.2190     0.4290 ca         1 6VS       0.425900
      4 C20          1.3880    -1.8220     0.1040 c6         1 6VS       0.111700
      5 C22          1.6990    -2.4330     1.4710 c6         1 6VS       0.141800
      6 C24          3.9550    -1.5990     1.3780 c6         1 6VS       0.160800
      7 C28          4.6080     0.2810    -0.1330 c          1 6VS       0.611100
      8 C1          -3.2760     7.4340    -0.3500 c3         1 6VS       0.147900
      9 C3          -3.3880     5.1130    -0.1090 c3         1 6VS       0.162600
     10 N6          -2.5830     1.4480     0.2740 nu         1 6VS      -0.917100
     11 N8          -4.4180     0.0920     0.4060 nb         1 6VS      -0.281000
     12 C9          -4.9530    -1.1090     0.5730 ca         1 6VS       0.200300
     13 N10         -4.2720    -2.2270     0.7800 nb         1 6VS      -0.225000
     14 C11         -2.9440    -2.1130     0.7700 ca         1 6VS       0.162900
     15 C12         -2.2730    -0.9290     0.5760 ca         1 6VS      -0.336600
     16 O14         -0.3000    -0.0880     1.5110 o          1 6VS      -0.612100
     17 N15         -0.0510    -1.6480    -0.1190 n          1 6VS      -0.399800
     18 C16         -0.5660    -2.2530    -1.3440 c3         1 6VS       0.105000
     19 C18         -0.6640    -2.3040    -3.8240 c3         1 6VS      -0.090100
     20 C19         -0.5580    -0.0840    -2.6500 c3         1 6VS      -0.090100
     21 N23          3.1120    -2.7720     1.5020 n7         1 6VS      -0.869400
     22 C25          3.7170    -0.9430     0.0120 c6         1 6VS      -0.137700
     23 C27          2.2410    -0.5750    -0.1340 c6         1 6VS      -0.082400
     24 N30          5.9090     0.0800    -0.4450 n          1 6VS      -0.417800
     25 C31          6.5500    -1.1870    -0.7540 c6         1 6VS       0.059500
     26 C32          7.7580    -1.3890     0.1460 c6         1 6VS       0.135100
     27 O33          8.6600    -0.3100     0.0570 os         1 6VS      -0.444000
     28 C34          8.0340     0.9110     0.3870 c6         1 6VS       0.135100
     29 C35          6.8420     1.1920    -0.5110 c6         1 6VS       0.059500
     30 C36         -6.4680    -1.1790     0.5040 c3         1 6VS      -0.085300
     31 C37         -6.8970    -0.7770    -0.9140 c3         1 6VS      -0.078100
     32 C38         -6.9790    -2.5850     0.8090 c3         1 6VS      -0.078100
     33 C39         -7.0670    -0.1930     1.5130 c3         1 6VS      -0.078100
     34 H1          -1.8720     3.9540     0.8710 hc         1 6VS       0.062200
     35 H2          -1.9030     3.7690    -0.8820 hc         1 6VS       0.062200
     36 H3          -4.0600     2.7330     1.0270 h1         1 6VS       0.053200
     37 H4          -4.0670     2.5300    -0.7130 h1         1 6VS       0.053200
     38 H5           0.9780    -1.5770    -2.6770 hc         1 6VS       0.050700
     39 H6           1.6940    -2.5720    -0.6320 h1         1 6VS       0.058700
     40 H7           1.4180    -1.7360     2.2700 h1         1 6VS       0.051200
     41 H8           1.1150    -3.3460     1.6030 h1         1 6VS       0.051200
     42 H9           3.7670    -0.8480     2.1620 h1         1 6VS       0.040700
     43 H10          4.9950    -1.9100     1.4850 h1         1 6VS       0.040700
     44 H11         -3.9080     7.4420    -1.2460 h1         1 6VS       0.029033
     45 H12         -3.9230     7.6140     0.5170 h1         1 6VS       0.029033
     46 H13         -2.5640     8.2550    -0.4240 h1         1 6VS       0.029033
     47 H14         -4.0550     5.0310    -0.9800 h1         1 6VS       0.022200
     48 H15         -4.0380     5.2050     0.7750 h1         1 6VS       0.022200
     49 H16         -1.6020     1.5780     0.4550 hn         1 6VS       0.517000
     50 H17         -2.3820    -3.0290     0.9290 h4         1 6VS       0.021100
     51 H18         -1.6530    -2.2570    -1.3240 h1         1 6VS       0.055700
     52 H19         -0.2500    -3.2980    -1.3730 h1         1 6VS       0.055700
     53 H20         -0.3000    -1.8740    -4.7570 hc         1 6VS       0.037367
     54 H21         -0.3650    -3.3540    -3.8030 hc         1 6VS       0.037367
     55 H22         -1.7560    -2.2690    -3.8460 hc         1 6VS       0.037367
     56 H23         -1.6450     0.0010    -2.5770 hc         1 6VS       0.037367
     57 H24         -0.1220     0.5000    -1.8380 hc         1 6VS       0.037367
     58 H25         -0.2540     0.3910    -3.5840 hc         1 6VS       0.037367
     59 H26          3.3230    -3.2420     2.3720 hn         1 6VS       0.418000
     60 H28          3.9540    -1.6800    -0.7610 hc         1 6VS       0.067700
     61 H29          2.0550    -0.1770    -1.1330 hc         1 6VS       0.072200
     62 H30          1.9780     0.2020     0.5820 hc         1 6VS       0.072200
     63 H31          5.8700    -2.0250    -0.6330 h1         1 6VS       0.063950
     64 H32          6.8670    -1.1790    -1.8020 h1         1 6VS       0.063950
     65 H33          7.4200    -1.5280     1.1830 h1         1 6VS       0.052950
     66 H34          8.2920    -2.2910    -0.1560 h1         1 6VS       0.052950
     67 H35          7.7030     0.9050     1.4350 h1         1 6VS       0.052950
     68 H36          8.7780     1.7000     0.2730 h1         1 6VS       0.052950
     69 H37          7.1740     1.3270    -1.5460 h1         1 6VS       0.063950
     70 H38          6.3530     2.1100    -0.1960 h1         1 6VS       0.063950
     71 H39         -6.4880    -1.4600    -1.6620 hc         1 6VS       0.039589
     72 H40         -7.9850    -0.8030    -0.9980 hc         1 6VS       0.039589
     73 H41         -6.5610     0.2310    -1.1540 hc         1 6VS       0.039589
     74 H42         -6.5950    -3.3210     0.1020 hc         1 6VS       0.039589
     75 H43         -6.6970    -2.9110     1.8110 hc         1 6VS       0.039589
     76 H44         -8.0690    -2.5990     0.7490 hc         1 6VS       0.039589
     77 H45         -8.1570    -0.2300     1.4650 hc         1 6VS       0.039589
     78 H46         -6.7700    -0.4410     2.5350 hc         1 6VS       0.039589
     79 H47         -6.7510     0.8290     1.3070 hc         1 6VS       0.039589
     80 C13         -0.7870    -0.8470     0.6780 c          1 6VS       0.634700
     81 O2          -2.5530     6.2370    -0.2270 os         1 6VS      -0.452000
     82 O29          4.1640     1.4050     0.0670 o          1 6VS      -0.598100
     83 C17         -0.1160    -1.5420    -2.6220 c3         1 6VS      -0.085700
@<TRIPOS>BOND
     1     1     2 1   
     2     1     9 1   
     3     1    34 1   
     4     1    35 1   
     5     2    10 1   
     6     2    36 1   
     7     2    37 1   
     8     3    10 1   
     9     3    11 ar  
    10     3    15 ar  
    11     4     5 1   
    12     4    17 1   
    13     4    23 1   
    14     4    39 1   
    15     5    21 1   
    16     5    40 1   
    17     5    41 1   
    18     6    21 1   
    19     6    22 1   
    20     6    42 1   
    21     6    43 1   
    22     7    22 1   
    23     7    24 1   
    24     7    82 2   
    25     8    44 1   
    26     8    45 1   
    27     8    46 1   
    28     8    81 1   
    29     9    47 1   
    30     9    48 1   
    31     9    81 1   
    32    10    49 1   
    33    11    12 ar  
    34    12    13 ar  
    35    12    30 1   
    36    13    14 ar  
    37    14    15 ar  
    38    14    50 1   
    39    15    80 1   
    40    16    80 2   
    41    17    18 1   
    42    17    80 1   
    43    18    51 1   
    44    18    52 1   
    45    18    83 1   
    46    19    53 1   
    47    19    54 1   
    48    19    55 1   
    49    19    83 1   
    50    20    56 1   
    51    20    57 1   
    52    20    58 1   
    53    20    83 1   
    54    21    59 1   
    55    22    23 1   
    56    22    60 1   
    57    23    61 1   
    58    23    62 1   
    59    24    25 1   
    60    24    29 1   
    61    25    26 1   
    62    25    63 1   
    63    25    64 1   
    64    26    27 1   
    65    26    65 1   
    66    26    66 1   
    67    27    28 1   
    68    28    29 1   
    69    28    67 1   
    70    28    68 1   
    71    29    69 1   
    72    29    70 1   
    73    30    31 1   
    74    30    32 1   
    75    30    33 1   
    76    31    71 1   
    77    31    72 1   
    78    31    73 1   
    79    32    74 1   
    80    32    75 1   
    81    32    76 1   
    82    33    77 1   
    83    33    78 1   
    84    33    79 1   
    85    38    83 1   
@<TRIPOS>SUBSTRUCTURE
     1 6VS         1 TEMP              0 ****  ****    0 ROOT
