@<TRIPOS>MOLECULE
6VU
   77    80     1     0     0
SMALL
No Charge or Current Charge


@<TRIPOS>ATOM
      1 C4          -2.8810     4.2020     0.9140 c3         1 6VU      -0.077400
      2 C5          -3.0490     2.8600     0.1680 c3         1 6VU      -0.102400
      3 C6          -3.5550     1.7240     1.0810 c3         1 6VU       0.085600
      4 C8          -2.7790    -0.6070     0.1780 cc         1 6VU       0.367800
      5 C10         -4.6860    -1.1490    -0.7640 ca         1 6VU       0.064400
      6 C13         -7.1540     0.1250    -1.0470 ca         1 6VU      -0.092000
      7 C15         -4.8880     0.0860    -0.2340 ca         1 6VU      -0.074200
      8 C20         -1.0290    -3.6620    -1.1420 c3         1 6VU      -0.083700
      9 C21          0.3850    -3.9950    -1.6760 c3         1 6VU      -0.087100
     10 C22         -1.9580    -4.8910    -1.2650 c3         1 6VU      -0.087100
     11 C28          3.3020    -0.7630     0.2670 c6         1 6VU      -0.138700
     12 C1          -1.7940     7.6800     0.0890 c3         1 6VU       0.147900
     13 C3          -2.3730     5.3360     0.0030 c3         1 6VU       0.159600
     14 N7          -3.7130     0.4420     0.3650 na         1 6VU      -0.168600
     15 N9          -3.3950    -1.5960    -0.5270 nd         1 6VU      -0.551100
     16 C11         -5.7080    -1.8120    -1.4590 ca         1 6VU      -0.045000
     17 C12         -6.9550    -1.1640    -1.5970 ca         1 6VU      -0.136000
     18 C14         -6.1090     0.7700    -0.3530 ca         1 6VU      -0.115000
     19 O17         -0.8340     0.4240     1.1410 o          1 6VU      -0.579100
     20 N18         -0.4760    -1.7470     0.4930 n          1 6VU      -0.388800
     21 C19         -1.0220    -3.1230     0.3190 c3         1 6VU       0.108000
     22 C23          0.9900    -1.6810     0.8000 c6         1 6VU       0.114700
     23 C25          1.3170    -1.5010     2.3140 c6         1 6VU       0.136800
     24 N26          2.7830    -1.5830     2.5730 n7         1 6VU      -0.870400
     25 C27          3.5690    -0.6020     1.7840 c6         1 6VU       0.160800
     26 C30          1.7890    -0.6890    -0.0900 c6         1 6VU      -0.077400
     27 C31          4.1990     0.1800    -0.5670 c          1 6VU       0.611100
     28 O32          3.8170     1.3170    -0.8120 o          1 6VU      -0.593100
     29 N33          5.4470    -0.2800    -1.0650 n          1 6VU      -0.418800
     30 C34          6.2640     0.5480    -2.0040 c6         1 6VU       0.059000
     31 C35          7.5750     1.0370    -1.3380 c6         1 6VU       0.135600
     32 O36          8.3090    -0.0920    -0.8130 os         1 6VU      -0.444000
     33 C37          7.5680    -0.8430     0.1750 c6         1 6VU       0.135600
     34 C38          6.2470    -1.3810    -0.4380 c6         1 6VU       0.059000
     35 H1          -3.8440     4.4970     1.3500 hc         1 6VU       0.050700
     36 H2          -2.1760     4.0680     1.7440 hc         1 6VU       0.050700
     37 H3          -3.7540     2.9920    -0.6630 hc         1 6VU       0.064200
     38 H4          -2.0870     2.5670    -0.2720 hc         1 6VU       0.064200
     39 H5          -2.8650     1.5870     1.9220 h1         1 6VU       0.056700
     40 H6          -4.5200     2.0120     1.5160 h1         1 6VU       0.056700
     41 H7          -8.1160     0.6200    -1.1610 ha         1 6VU       0.112000
     42 H8          -1.4410    -2.8810    -1.7920 hc         1 6VU       0.081700
     43 H9           0.8900    -4.7190    -1.0250 hc         1 6VU       0.034867
     44 H10          0.3260    -4.4250    -2.6830 hc         1 6VU       0.034867
     45 H11          1.0050    -3.0960    -1.7410 hc         1 6VU       0.034867
     46 H12         -2.9780    -4.6400    -0.9470 hc         1 6VU       0.034867
     47 H13         -2.0070    -5.2400    -2.3040 hc         1 6VU       0.034867
     48 H14         -1.5980    -5.7180    -0.6410 hc         1 6VU       0.034867
     49 H15          3.6310    -1.7810     0.0300 hc         1 6VU       0.068700
     50 H16         -0.7950     7.5030    -0.3300 h1         1 6VU       0.028700
     51 H17         -2.4760     7.9330    -0.7330 h1         1 6VU       0.028700
     52 H18         -1.7340     8.5450     0.7610 h1         1 6VU       0.028700
     53 H19         -1.3980     5.0590    -0.4210 h1         1 6VU       0.024200
     54 H20         -3.0810     5.4890    -0.8230 h1         1 6VU       0.024200
     55 H21         -5.5400    -2.8000    -1.8810 ha         1 6VU       0.129000
     56 H22         -7.7640    -1.6560    -2.1320 ha         1 6VU       0.114000
     57 H23         -6.2550     1.7620     0.0670 ha         1 6VU       0.118000
     58 H24         -2.0270    -3.1750     0.7510 h1         1 6VU       0.048200
     59 H25         -0.4270    -3.8140     0.9310 h1         1 6VU       0.048200
     60 H26          1.4030    -2.6690     0.5520 h1         1 6VU       0.064700
     61 H27          0.9450    -0.5290     2.6660 h1         1 6VU       0.043700
     62 H28          0.8020    -2.2820     2.8920 h1         1 6VU       0.043700
     63 H29          2.9550    -1.4230     3.5750 hn         1 6VU       0.420000
     64 H31          4.6400    -0.7360     1.9970 h1         1 6VU       0.041700
     65 H32          3.2980     0.4190     2.0950 h1         1 6VU       0.041700
     66 H33          1.4340     0.3370     0.0620 hc         1 6VU       0.079700
     67 H34          1.6360    -0.9180    -1.1530 hc         1 6VU       0.079700
     68 H35          6.5150    -0.0590    -2.8860 h1         1 6VU       0.064200
     69 H36          5.6960     1.4160    -2.3680 h1         1 6VU       0.064200
     70 H37          8.1990     1.5620    -2.0750 h1         1 6VU       0.052950
     71 H38          7.3470     1.7350    -0.5200 h1         1 6VU       0.052950
     72 H39          8.1860    -1.6800     0.5290 h1         1 6VU       0.052950
     73 H40          7.3470    -0.1930     1.0340 h1         1 6VU       0.052950
     74 H41          5.6930    -1.9010     0.3520 h1         1 6VU       0.064200
     75 H42          6.4870    -2.1290    -1.2080 h1         1 6VU       0.064200
     76 C16         -1.3200    -0.5870     0.6420 c          1 6VU       0.551800
     77 O2          -2.2610     6.5240     0.8030 os         1 6VU      -0.457000
@<TRIPOS>BOND
     1     1     2 1   
     2     1    13 1   
     3     1    35 1   
     4     1    36 1   
     5     2     3 1   
     6     2    37 1   
     7     2    38 1   
     8     3    14 1   
     9     3    39 1   
    10     3    40 1   
    11     4    14 1   
    12     4    15 2   
    13     4    76 1   
    14     5     7 ar  
    15     5    15 1   
    16     5    16 ar  
    17     6    17 ar  
    18     6    18 ar  
    19     6    41 1   
    20     7    14 1   
    21     7    18 ar  
    22     8     9 1   
    23     8    10 1   
    24     8    21 1   
    25     8    42 1   
    26     9    43 1   
    27     9    44 1   
    28     9    45 1   
    29    10    46 1   
    30    10    47 1   
    31    10    48 1   
    32    11    25 1   
    33    11    26 1   
    34    11    27 1   
    35    11    49 1   
    36    12    50 1   
    37    12    51 1   
    38    12    52 1   
    39    12    77 1   
    40    13    53 1   
    41    13    54 1   
    42    13    77 1   
    43    16    17 ar  
    44    16    55 1   
    45    17    56 1   
    46    18    57 1   
    47    19    76 2   
    48    20    21 1   
    49    20    22 1   
    50    20    76 1   
    51    21    58 1   
    52    21    59 1   
    53    22    23 1   
    54    22    26 1   
    55    22    60 1   
    56    23    24 1   
    57    23    61 1   
    58    23    62 1   
    59    24    25 1   
    60    24    63 1   
    61    25    64 1   
    62    25    65 1   
    63    26    66 1   
    64    26    67 1   
    65    27    28 2   
    66    27    29 1   
    67    29    30 1   
    68    29    34 1   
    69    30    31 1   
    70    30    68 1   
    71    30    69 1   
    72    31    32 1   
    73    31    70 1   
    74    31    71 1   
    75    32    33 1   
    76    33    34 1   
    77    33    72 1   
    78    33    73 1   
    79    34    74 1   
    80    34    75 1   
@<TRIPOS>SUBSTRUCTURE
     1 6VU         1 TEMP              0 ****  ****    0 ROOT
