@<TRIPOS>MOLECULE
6VU
   77    80     1     0     0
SMALL
abcg2


@<TRIPOS>ATOM
      1 C4          -2.8860     3.5850     1.5330 c3         1 6VU      -0.077400
      2 C5          -3.1500     2.6860     0.3320 c3         1 6VU      -0.102400
      3 C6          -3.2250     1.2240     0.7470 c3         1 6VU       0.085600
      4 C8          -2.4690    -0.3800    -1.0390 cc         1 6VU       0.367800
      5 C10         -4.2800    -0.8280    -2.0470 ca         1 6VU       0.064400
      6 C13         -6.8840     0.0100    -1.6350 ca         1 6VU      -0.092000
      7 C15         -4.6080     0.0620    -1.0130 ca         1 6VU      -0.074200
      8 C20         -1.2510    -3.5490    -0.3530 c3         1 6VU      -0.083700
      9 C21          0.1160    -4.1410    -0.6730 c3         1 6VU      -0.087100
     10 C22         -2.1350    -4.5740     0.3490 c3         1 6VU      -0.087100
     11 C28          3.4040    -0.8340    -0.2410 c6         1 6VU      -0.138700
     12 C1          -2.5170     7.2050     1.9660 c3         1 6VU       0.147900
     13 C3          -2.8410     5.0460     1.1310 c3         1 6VU       0.159600
     14 N7          -3.4210     0.3310    -0.3780 na         1 6VU      -0.168600
     15 N9          -2.9290    -1.0840    -2.0330 nd         1 6VU      -0.551100
     16 C11         -5.2770    -1.3090    -2.8950 ca         1 6VU      -0.045000
     17 C12         -6.5730    -0.8790    -2.6760 ca         1 6VU      -0.136000
     18 C14         -5.9090     0.4970    -0.7820 ca         1 6VU      -0.115000
     19 O17         -0.4870     0.8350    -1.0990 o          1 6VU      -0.579100
     20 N18         -0.4060    -1.1850    -0.0390 n          1 6VU      -0.388800
     21 C19         -1.1690    -2.3000     0.5230 c3         1 6VU       0.108000
     22 C23          1.0040    -1.0810     0.3580 c6         1 6VU       0.114700
     23 C25          1.1980    -0.0580     1.4780 c6         1 6VU       0.136800
     24 N26          2.5730    -0.1300     1.9330 n7         1 6VU      -0.870400
     25 C27          3.5140     0.2040     0.8830 c6         1 6VU       0.160800
     26 C30          1.9780    -0.8280    -0.7920 c6         1 6VU      -0.077400
     27 C31          4.4130    -0.5280    -1.3380 c          1 6VU       0.611100
     28 O32          4.0710     0.0590    -2.3560 o          1 6VU      -0.593100
     29 N33          5.6970    -0.8970    -1.1310 n          1 6VU      -0.418800
     30 C34          6.7230    -0.6110    -2.1200 c6         1 6VU       0.059000
     31 C35          7.8880     0.1010    -1.4590 c6         1 6VU       0.135600
     32 O36          8.4070    -0.6460    -0.3800 os         1 6VU      -0.444000
     33 C37          7.4170    -0.8940     0.5900 c6         1 6VU       0.135600
     34 C38          6.2230    -1.6320     0.0070 c6         1 6VU       0.059000
     35 H1          -3.6650     3.4380     2.2860 hc         1 6VU       0.050700
     36 H2          -1.9340     3.3070     1.9960 hc         1 6VU       0.050700
     37 H3          -4.0880     2.9760    -0.1500 hc         1 6VU       0.064200
     38 H4          -2.3580     2.8070    -0.4100 hc         1 6VU       0.064200
     39 H5          -2.3120     0.9230     1.2610 h1         1 6VU       0.056700
     40 H6          -4.0400     1.0620     1.4530 h1         1 6VU       0.056700
     41 H7          -7.9100     0.3240    -1.4970 ha         1 6VU       0.112000
     42 H8          -1.7330    -3.2620    -1.2920 hc         1 6VU       0.081700
     43 H9           0.6550    -4.4150     0.2370 hc         1 6VU       0.034867
     44 H10          0.0060    -5.0460    -1.2730 hc         1 6VU       0.034867
     45 H11          0.7410    -3.4530    -1.2440 hc         1 6VU       0.034867
     46 H12         -3.1310    -4.1750     0.5510 hc         1 6VU       0.034867
     47 H13         -2.2540    -5.4690    -0.2620 hc         1 6VU       0.034867
     48 H14         -1.6990    -4.8790     1.3030 hc         1 6VU       0.034867
     49 H15          3.6040    -1.8210     0.1860 hc         1 6VU       0.068700
     50 H16         -1.7450     7.4390     1.2230 h1         1 6VU       0.028700
     51 H17         -3.4740     7.5790     1.5820 h1         1 6VU       0.028700
     52 H18         -2.2830     7.7420     2.8850 h1         1 6VU       0.028700
     53 H19         -2.0710     5.1970     0.3590 h1         1 6VU       0.024200
     54 H20         -3.8010     5.3370     0.6800 h1         1 6VU       0.024200
     55 H21         -5.0420    -1.9950    -3.6990 ha         1 6VU       0.129000
     56 H22         -7.3680    -1.2320    -3.3200 ha         1 6VU       0.114000
     57 H23         -6.1550     1.1830     0.0180 ha         1 6VU       0.118000
     58 H24         -2.1800    -1.9620     0.7620 h1         1 6VU       0.048200
     59 H25         -0.7130    -2.5530     1.4840 h1         1 6VU       0.048200
     60 H26          1.2550    -2.0570     0.7780 h1         1 6VU       0.064700
     61 H27          0.9220     0.9420     1.1140 h1         1 6VU       0.043700
     62 H28          0.5380    -0.3020     2.3130 h1         1 6VU       0.043700
     63 H29          2.7040     0.4970     2.7160 hn         1 6VU       0.420000
     64 H31          4.5180     0.2160     1.3120 h1         1 6VU       0.041700
     65 H32          3.3390     1.2030     0.4510 h1         1 6VU       0.041700
     66 H33          1.7750     0.1330    -1.2580 hc         1 6VU       0.079700
     67 H34          1.8570    -1.5970    -1.5580 hc         1 6VU       0.079700
     68 H35          7.0640    -1.5520    -2.5670 h1         1 6VU       0.064200
     69 H36          6.3130     0.0060    -2.9150 h1         1 6VU       0.064200
     70 H37          8.6960     0.2400    -2.1790 h1         1 6VU       0.052950
     71 H38          7.5610     1.0930    -1.1190 h1         1 6VU       0.052950
     72 H39          7.8710    -1.4980     1.3770 h1         1 6VU       0.052950
     73 H40          7.0740     0.0490     1.0410 h1         1 6VU       0.052950
     74 H41          5.4780    -1.7580     0.7860 h1         1 6VU       0.064200
     75 H42          6.5270    -2.6320    -0.3210 h1         1 6VU       0.064200
     76 C16         -1.0120    -0.2010    -0.7180 c          1 6VU       0.551800
     77 O2          -2.5670     5.8340     2.2630 os         1 6VU      -0.457000
@<TRIPOS>BOND
     1     1     2 1   
     2     1    13 1   
     3     1    35 1   
     4     1    36 1   
     5     2     3 1   
     6     2    37 1   
     7     2    38 1   
     8     3    14 1   
     9     3    39 1   
    10     3    40 1   
    11     4    14 1   
    12     4    15 2   
    13     4    76 1   
    14     5     7 ar  
    15     5    15 1   
    16     5    16 ar  
    17     6    17 ar  
    18     6    18 ar  
    19     6    41 1   
    20     7    14 1   
    21     7    18 ar  
    22     8     9 1   
    23     8    10 1   
    24     8    21 1   
    25     8    42 1   
    26     9    43 1   
    27     9    44 1   
    28     9    45 1   
    29    10    46 1   
    30    10    47 1   
    31    10    48 1   
    32    11    25 1   
    33    11    26 1   
    34    11    27 1   
    35    11    49 1   
    36    12    50 1   
    37    12    51 1   
    38    12    52 1   
    39    12    77 1   
    40    13    53 1   
    41    13    54 1   
    42    13    77 1   
    43    16    17 ar  
    44    16    55 1   
    45    17    56 1   
    46    18    57 1   
    47    19    76 2   
    48    20    21 1   
    49    20    22 1   
    50    20    76 1   
    51    21    58 1   
    52    21    59 1   
    53    22    23 1   
    54    22    26 1   
    55    22    60 1   
    56    23    24 1   
    57    23    61 1   
    58    23    62 1   
    59    24    25 1   
    60    24    63 1   
    61    25    64 1   
    62    25    65 1   
    63    26    66 1   
    64    26    67 1   
    65    27    28 2   
    66    27    29 1   
    67    29    30 1   
    68    29    34 1   
    69    30    31 1   
    70    30    68 1   
    71    30    69 1   
    72    31    32 1   
    73    31    70 1   
    74    31    71 1   
    75    32    33 1   
    76    33    34 1   
    77    33    72 1   
    78    33    73 1   
    79    34    74 1   
    80    34    75 1   
@<TRIPOS>SUBSTRUCTURE
     1 6VU         1 TEMP              0 ****  ****    0 ROOT
