@<TRIPOS>MOLECULE
6VV
   17    17     1     0     0
SMALL
No Charge or Current Charge


@<TRIPOS>ATOM
      1 O01         -1.7430    -0.1700    -1.0030 oh         1 6VV      -0.659500
      2 C02         -0.9330    -0.2990     0.1740 c5         1 6VV       0.163800
      3 C03         -0.6030     1.0930     0.7860 c5         1 6VV      -0.116400
      4 C04          0.5930     1.6260    -0.0700 c5         1 6VV      -0.072400
      5 C05          1.1370     0.3830    -0.8490 c5         1 6VV      -0.116400
      6 C06          0.5080    -0.8400    -0.1230 c5         1 6VV       0.163800
      7 O07          1.2420    -1.1750     1.0630 oh         1 6VV      -0.659500
      8 H1          -2.5820     0.2570    -0.7230 ho         1 6VV       0.444000
      9 H2          -1.4470    -0.9370     0.9070 h1         1 6VV       0.055200
     10 H3          -1.4610     1.7740     0.7720 hc         1 6VV       0.048950
     11 H4          -0.3080     0.9900     1.8360 hc         1 6VV       0.048950
     12 H5           0.2720     2.4110    -0.7650 hc         1 6VV       0.049200
     13 H6           1.3640     2.0690     0.5710 hc         1 6VV       0.049200
     14 H7           0.8160     0.4150    -1.8960 hc         1 6VV       0.048950
     15 H8           2.2330     0.3480    -0.8630 hc         1 6VV       0.048950
     16 H9           0.4670    -1.7130    -0.7900 h1         1 6VV       0.055200
     17 H10          2.1500    -1.4140     0.7750 ho         1 6VV       0.444000
@<TRIPOS>BOND
     1     1     2 1   
     2     1     8 1   
     3     2     3 1   
     4     2     6 1   
     5     2     9 1   
     6     3     4 1   
     7     3    10 1   
     8     3    11 1   
     9     4     5 1   
    10     4    12 1   
    11     4    13 1   
    12     5     6 1   
    13     5    14 1   
    14     5    15 1   
    15     6     7 1   
    16     6    16 1   
    17     7    17 1   
@<TRIPOS>SUBSTRUCTURE
     1 6VV         1 TEMP              0 ****  ****    0 ROOT
