@<TRIPOS>MOLECULE
6VV
   17    17     1     0     0
SMALL
bcc


@<TRIPOS>ATOM
      1 O01         -1.9340    -0.7600    -0.3930 oh         1 6VV      -0.597300
      2 C02         -0.8280    -0.2520     0.3210 c5         1 6VV       0.140600
      3 C03         -0.7520     1.2840     0.3550 c5         1 6VV      -0.116400
      4 C04          0.7390     1.5950     0.2550 c5         1 6VV      -0.072400
      5 C05          1.2050     0.5580    -0.7640 c5         1 6VV      -0.116400
      6 C06          0.4860    -0.7260    -0.3400 c5         1 6VV       0.140600
      7 O07          1.2160    -1.4510     0.6340 oh         1 6VV      -0.597300
      8 H1          -2.7350    -0.4530     0.0420 ho         1 6VV       0.405000
      9 H2          -0.8330    -0.6300     1.3530 h1         1 6VV       0.055200
     10 H3          -1.2660     1.6840    -0.5240 hc         1 6VV       0.048950
     11 H4          -1.2310     1.7080     1.2390 hc         1 6VV       0.048950
     12 H5           0.9430     2.6230    -0.0450 hc         1 6VV       0.049200
     13 H6           1.2320     1.4310     1.2160 hc         1 6VV       0.049200
     14 H7           0.8570     0.8490    -1.7590 hc         1 6VV       0.048950
     15 H8           2.2890     0.4370    -0.8240 hc         1 6VV       0.048950
     16 H9           0.2650    -1.3620    -1.2060 h1         1 6VV       0.055200
     17 H10          2.0520    -1.7170     0.2410 ho         1 6VV       0.405000
@<TRIPOS>BOND
     1     1     2 1   
     2     1     8 1   
     3     2     3 1   
     4     2     6 1   
     5     2     9 1   
     6     3     4 1   
     7     3    10 1   
     8     3    11 1   
     9     4     5 1   
    10     4    12 1   
    11     4    13 1   
    12     5     6 1   
    13     5    14 1   
    14     5    15 1   
    15     6     7 1   
    16     6    16 1   
    17     7    17 1   
@<TRIPOS>SUBSTRUCTURE
     1 6VV         1 TEMP              0 ****  ****    0 ROOT
