@<TRIPOS>MOLECULE
6VW
   46    49     1     0     0
SMALL
No Charge or Current Charge


@<TRIPOS>ATOM
      1 C6           4.1990     1.4100    -0.2050 c6         1 6VW      -0.181400
      2 C2           3.8240    -1.0790     0.1200 ce         1 6VW      -0.319200
      3 C4           1.8310     0.4080    -0.4310 c6         1 6VW      -0.032500
      4 C5           2.7000     1.5860     0.1190 c6         1 6VW      -0.065400
      5 C1           4.7190     0.0810     0.3390 c          1 6VW       0.575300
      6 O1           5.8100    -0.0220     0.8820 o          1 6VW      -0.529100
      7 C3           2.5160    -0.9570    -0.2100 c2         1 6VW      -0.035400
      8 C10          1.6650    -2.1920    -0.4820 c6         1 6VW      -0.052200
      9 C11          0.2690    -2.1030     0.1630 c6         1 6VW      -0.068400
     10 C12         -0.4520    -0.8030    -0.2680 c6         1 6VW      -0.045700
     11 C13          0.3820     0.4470     0.1750 c6         1 6VW      -0.051700
     12 C16         -1.8830    -0.7140     0.3330 c5         1 6VW      -0.065700
     13 C17         -2.6460     0.5740    -0.0930 c5         1 6VW      -0.039000
     14 C18         -1.8290     1.8080     0.3840 c6         1 6VW      -0.058400
     15 C19         -0.3710     1.7820    -0.1630 c6         1 6VW      -0.072400
     16 C24         -2.9090    -1.8320    -0.0050 c5         1 6VW      -0.065400
     17 C25         -4.2890    -1.1920     0.3840 c5         1 6VW      -0.116400
     18 C26         -3.9730     0.3000     0.7460 c5         1 6VW       0.171300
     19 C27         -2.9290     0.7240    -1.6300 c3         1 6VW      -0.073100
     20 O27         -5.1100     1.1610     0.4830 oh         1 6VW      -0.651000
     21 H1           4.2720     1.3500    -1.2990 hc         1 6VW       0.068700
     22 H2           4.8220     2.2420     0.1460 hc         1 6VW       0.068700
     23 H3           4.2760    -2.0530     0.2910 ha         1 6VW       0.195000
     24 H5           1.7420     0.5400    -1.5190 hc         1 6VW       0.061700
     25 H6           2.5790     1.6620     1.2090 hc         1 6VW       0.048700
     26 H7           2.3580     2.5420    -0.3020 hc         1 6VW       0.048700
     27 H9           1.5560    -2.3140    -1.5690 hc         1 6VW       0.054200
     28 H10          2.1740    -3.0970    -0.1240 hc         1 6VW       0.054200
     29 H11         -0.3180    -2.9840    -0.1300 hc         1 6VW       0.045700
     30 H12          0.3640    -2.1380     1.2570 hc         1 6VW       0.045700
     31 H13         -0.5330    -0.8080    -1.3640 hc         1 6VW       0.052700
     32 H14          0.4840     0.4010     1.2690 hc         1 6VW       0.049700
     33 H15         -1.7160    -0.7110     1.4190 hc         1 6VW       0.045700
     34 H16         -2.3300     2.7390     0.0830 hc         1 6VW       0.045700
     35 H17         -1.7960     1.8240     1.4820 hc         1 6VW       0.045700
     36 H18          0.1600     2.6370     0.2730 hc         1 6VW       0.040700
     37 H19         -0.3680     1.9510    -1.2480 hc         1 6VW       0.040700
     38 H20         -2.8780    -2.1070    -1.0660 hc         1 6VW       0.044700
     39 H21         -2.7130    -2.7500     0.5620 hc         1 6VW       0.044700
     40 H22         -4.9950    -1.2680    -0.4510 hc         1 6VW       0.047700
     41 H23         -4.7510    -1.7110     1.2310 hc         1 6VW       0.047700
     42 H24         -3.7330     0.3590     1.8170 h1         1 6VW       0.027700
     43 H25         -3.4490     1.6670    -1.8380 hc         1 6VW       0.036367
     44 H26         -2.0140     0.7240    -2.2300 hc         1 6VW       0.036367
     45 H27         -3.5650    -0.0750    -2.0270 hc         1 6VW       0.036367
     46 H28         -5.8470     0.8310     1.0420 ho         1 6VW       0.442000
@<TRIPOS>BOND
     1     1     4 1   
     2     1     5 1   
     3     1    21 1   
     4     1    22 1   
     5     2     5 1   
     6     2     7 2   
     7     2    23 1   
     8     3     4 1   
     9     3     7 1   
    10     3    11 1   
    11     3    24 1   
    12     4    25 1   
    13     4    26 1   
    14     5     6 2   
    15     7     8 1   
    16     8     9 1   
    17     8    27 1   
    18     8    28 1   
    19     9    10 1   
    20     9    29 1   
    21     9    30 1   
    22    10    11 1   
    23    10    12 1   
    24    10    31 1   
    25    11    15 1   
    26    11    32 1   
    27    12    13 1   
    28    12    16 1   
    29    12    33 1   
    30    13    14 1   
    31    13    18 1   
    32    13    19 1   
    33    14    15 1   
    34    14    34 1   
    35    14    35 1   
    36    15    36 1   
    37    15    37 1   
    38    16    17 1   
    39    16    38 1   
    40    16    39 1   
    41    17    18 1   
    42    17    40 1   
    43    17    41 1   
    44    18    20 1   
    45    18    42 1   
    46    19    43 1   
    47    19    44 1   
    48    19    45 1   
    49    20    46 1   
@<TRIPOS>SUBSTRUCTURE
     1 6VW         1 TEMP              0 ****  ****    0 ROOT
