@<TRIPOS>MOLECULE
6VW
   46    49     1     0     0
SMALL
abcg2


@<TRIPOS>ATOM
      1 C6           4.1010     1.4070    -0.2010 c6         1 6VW      -0.181400
      2 C2           3.7230    -1.0430     0.1730 ce         1 6VW      -0.319200
      3 C4           1.7760     0.4100    -0.4390 c6         1 6VW      -0.032500
      4 C5           2.6210     1.5570     0.1140 c6         1 6VW      -0.065400
      5 C1           4.6330     0.0930     0.3000 c          1 6VW       0.575300
      6 O1           5.7690    -0.0390     0.7240 o          1 6VW      -0.529100
      7 C3           2.4490    -0.9230    -0.2360 c2         1 6VW      -0.035400
      8 C10          1.6340    -2.1390    -0.5460 c6         1 6VW      -0.052200
      9 C11          0.2480    -2.0950     0.0870 c6         1 6VW      -0.068400
     10 C12         -0.4680    -0.8030    -0.2770 c6         1 6VW      -0.045700
     11 C13          0.3590     0.4090     0.1790 c6         1 6VW      -0.051700
     12 C16         -1.8480    -0.7080     0.3470 c5         1 6VW      -0.065700
     13 C17         -2.6050     0.5640    -0.0590 c5         1 6VW      -0.039000
     14 C18         -1.8050     1.7700     0.4200 c6         1 6VW      -0.058400
     15 C19         -0.3640     1.7340    -0.0960 c6         1 6VW      -0.072400
     16 C24         -2.8570    -1.8380     0.1210 c5         1 6VW      -0.065400
     17 C25         -4.2260    -1.1750     0.4020 c5         1 6VW      -0.116400
     18 C26         -3.9220     0.3130     0.6780 c5         1 6VW       0.171300
     19 C27         -2.8540     0.6500    -1.5680 c3         1 6VW      -0.073100
     20 O27         -4.9340     1.2050     0.2770 oh         1 6VW      -0.651000
     21 H1           4.2550     1.4290    -1.2870 hc         1 6VW       0.068700
     22 H2           4.6830     2.2290     0.2180 hc         1 6VW       0.068700
     23 H3           4.1400    -2.0280     0.3580 ha         1 6VW       0.195000
     24 H5           1.6560     0.5460    -1.5250 hc         1 6VW       0.061700
     25 H6           2.4880     1.6040     1.2000 hc         1 6VW       0.048700
     26 H7           2.2690     2.5090    -0.2830 hc         1 6VW       0.048700
     27 H9           1.5140    -2.1860    -1.6360 hc         1 6VW       0.054200
     28 H10          2.1730    -3.0410    -0.2530 hc         1 6VW       0.054200
     29 H11         -0.3250    -2.9600    -0.2530 hc         1 6VW       0.045700
     30 H12          0.3330    -2.1790     1.1760 hc         1 6VW       0.045700
     31 H13         -0.5640    -0.7740    -1.3710 hc         1 6VW       0.052700
     32 H14          0.4850     0.3140     1.2680 hc         1 6VW       0.049700
     33 H15         -1.6900    -0.6340     1.4340 hc         1 6VW       0.045700
     34 H16         -2.2770     2.7060     0.1090 hc         1 6VW       0.045700
     35 H17         -1.7950     1.7740     1.5160 hc         1 6VW       0.045700
     36 H18          0.1840     2.5590     0.3620 hc         1 6VW       0.040700
     37 H19         -0.3450     1.9260    -1.1740 hc         1 6VW       0.040700
     38 H20         -2.8070    -2.2090    -0.9060 hc         1 6VW       0.044700
     39 H21         -2.6650    -2.6900     0.7730 hc         1 6VW       0.044700
     40 H22         -4.8870    -1.2600    -0.4630 hc         1 6VW       0.047700
     41 H23         -4.7450    -1.6390     1.2420 hc         1 6VW       0.047700
     42 H24         -3.7200     0.4360     1.7540 h1         1 6VW       0.027700
     43 H25         -3.4390     1.5380    -1.8090 hc         1 6VW       0.036367
     44 H26         -1.9270     0.7150    -2.1370 hc         1 6VW       0.036367
     45 H27         -3.3990    -0.2130    -1.9530 hc         1 6VW       0.036367
     46 H28         -5.7200     1.0200     0.7990 ho         1 6VW       0.442000
@<TRIPOS>BOND
     1     1     4 1   
     2     1     5 1   
     3     1    21 1   
     4     1    22 1   
     5     2     5 1   
     6     2     7 2   
     7     2    23 1   
     8     3     4 1   
     9     3     7 1   
    10     3    11 1   
    11     3    24 1   
    12     4    25 1   
    13     4    26 1   
    14     5     6 2   
    15     7     8 1   
    16     8     9 1   
    17     8    27 1   
    18     8    28 1   
    19     9    10 1   
    20     9    29 1   
    21     9    30 1   
    22    10    11 1   
    23    10    12 1   
    24    10    31 1   
    25    11    15 1   
    26    11    32 1   
    27    12    13 1   
    28    12    16 1   
    29    12    33 1   
    30    13    14 1   
    31    13    18 1   
    32    13    19 1   
    33    14    15 1   
    34    14    34 1   
    35    14    35 1   
    36    15    36 1   
    37    15    37 1   
    38    16    17 1   
    39    16    38 1   
    40    16    39 1   
    41    17    18 1   
    42    17    40 1   
    43    17    41 1   
    44    18    20 1   
    45    18    42 1   
    46    19    43 1   
    47    19    44 1   
    48    19    45 1   
    49    20    46 1   
@<TRIPOS>SUBSTRUCTURE
     1 6VW         1 TEMP              0 ****  ****    0 ROOT
