@<TRIPOS>MOLECULE
6VX
   34    36     1     0     0
SMALL
abcg2


@<TRIPOS>ATOM
      1 O01          1.8800     1.7400     1.1630 o          1 6VX      -0.669200
      2 S02          2.1440     1.7510    -0.2830 s6         1 6VX       1.309600
      3 O03          1.1800     2.5720    -1.0510 o          1 6VX      -0.669200
      4 O04          3.5410     2.0090    -0.6470 o          1 6VX      -0.669200
      5 C05          1.8100     0.0290    -0.8450 c3         1 6VX      -0.350400
      6 C06          0.4420    -0.4380    -0.3810 c          1 6VX       0.649100
      7 O07          0.2550    -1.4890     0.1950 o          1 6VX      -0.586100
      8 N08         -0.5900     0.3910    -0.7040 ns         1 6VX      -0.408400
      9 C09         -1.9050     0.1460    -0.4190 cc         1 6VX       0.488800
     10 N10         -2.8250     0.9890    -0.7350 nd         1 6VX      -0.616100
     11 C11         -4.0600     0.5210    -0.3560 ca         1 6VX       0.139400
     12 C12         -5.2720     1.1840    -0.5490 ca         1 6VX      -0.077000
     13 C13         -6.4390     0.5820    -0.1160 ca         1 6VX      -0.116000
     14 C14         -6.4160    -0.6700     0.5070 ca         1 6VX      -0.135000
     15 C15         -5.2220    -1.3410     0.7080 ca         1 6VX      -0.064000
     16 C16         -4.0520    -0.7340     0.2710 ca         1 6VX      -0.237000
     17 S17         -2.4200    -1.3230     0.3800 ss         1 6VX       0.093800
     18 C18          2.9210    -0.8880    -0.4370 ca         1 6VX      -0.008300
     19 C19          3.1590    -1.2100     0.8990 ca         1 6VX      -0.083000
     20 C20          4.2130    -2.0440     1.2400 ca         1 6VX      -0.120500
     21 C21          5.0450    -2.5650     0.2560 ca         1 6VX      -0.125000
     22 C22          4.8170    -2.2460    -1.0740 ca         1 6VX      -0.120500
     23 C23          3.7600    -1.4110    -1.4150 ca         1 6VX      -0.083000
     24 H1           1.7760     0.0950    -1.9370 h1         1 6VX       0.101700
     25 H2          -0.3750     1.2950    -1.1200 hn         1 6VX       0.389500
     26 H3          -5.2880     2.1520    -1.0340 ha         1 6VX       0.125000
     27 H4          -7.3850     1.0860    -0.2620 ha         1 6VX       0.102000
     28 H5          -7.3430    -1.1220     0.8340 ha         1 6VX       0.100000
     29 H6          -5.2040    -2.3100     1.1910 ha         1 6VX       0.112000
     30 H7           2.5280    -0.8090     1.6800 ha         1 6VX       0.121500
     31 H8           4.3880    -2.2870     2.2800 ha         1 6VX       0.096500
     32 H9           5.8680    -3.2140     0.5260 ha         1 6VX       0.092000
     33 H10          5.4600    -2.6420    -1.8490 ha         1 6VX       0.096500
     34 H11          3.5870    -1.1650    -2.4550 ha         1 6VX       0.121500
@<TRIPOS>BOND
     1     1     2 1   
     2     2     3 1   
     3     2     4 1   
     4     2     5 1   
     5     5     6 1   
     6     5    18 1   
     7     5    24 1   
     8     6     7 2   
     9     6     8 1   
    10     8     9 1   
    11     8    25 1   
    12     9    10 2   
    13     9    17 1   
    14    10    11 1   
    15    11    12 ar  
    16    11    16 ar  
    17    12    13 ar  
    18    12    26 1   
    19    13    14 ar  
    20    13    27 1   
    21    14    15 ar  
    22    14    28 1   
    23    15    16 ar  
    24    15    29 1   
    25    16    17 1   
    26    18    19 ar  
    27    18    23 ar  
    28    19    20 ar  
    29    19    30 1   
    30    20    21 ar  
    31    20    31 1   
    32    21    22 ar  
    33    21    32 1   
    34    22    23 ar  
    35    22    33 1   
    36    23    34 1   
@<TRIPOS>SUBSTRUCTURE
     1 6VX         1 TEMP              0 ****  ****    0 ROOT
