@<TRIPOS>MOLECULE
6VX
   34    36     1     0     0
SMALL
No Charge or Current Charge


@<TRIPOS>ATOM
      1 O01          2.3230     1.7100     1.6870 o          1 6VX      -0.669200
      2 S02          2.2800     1.8890     0.2300 s6         1 6VX       1.309600
      3 O03          1.1840     2.7420    -0.2460 o          1 6VX      -0.669200
      4 O04          3.5810     2.1790    -0.3880 o          1 6VX      -0.669200
      5 C05          1.8500     0.2800    -0.4170 c3         1 6VX      -0.350400
      6 C06          0.5340    -0.1440     0.1960 c          1 6VX       0.649100
      7 O07          0.4650    -0.9090     1.1460 o          1 6VX      -0.586100
      8 N08         -0.5780     0.3410    -0.4430 ns         1 6VX      -0.408400
      9 C09         -1.9020     0.0790    -0.1980 cc         1 6VX       0.488800
     10 N10         -2.7830     0.7000    -0.9870 nd         1 6VX      -0.616100
     11 C11         -4.0560     0.3070    -0.5910 ca         1 6VX       0.139400
     12 C12         -5.2370     0.7640    -1.1990 ca         1 6VX      -0.077000
     13 C13         -6.4830     0.3050    -0.7240 ca         1 6VX      -0.116000
     14 C14         -6.5390    -0.6050     0.3530 ca         1 6VX      -0.135000
     15 C15         -5.3500    -1.0580     0.9560 ca         1 6VX      -0.064000
     16 C16         -4.1260    -0.5830     0.4610 ca         1 6VX      -0.237000
     17 S17         -2.5360    -1.0180     1.0650 ss         1 6VX       0.093800
     18 C18          2.9570    -0.7830    -0.3310 ca         1 6VX      -0.008300
     19 C19          3.4960    -1.2040     0.9050 ca         1 6VX      -0.083000
     20 C20          4.5070    -2.1800     0.9480 ca         1 6VX      -0.120500
     21 C21          4.9900    -2.7470    -0.2420 ca         1 6VX      -0.125000
     22 C22          4.4600    -2.3370    -1.4760 ca         1 6VX      -0.120500
     23 C23          3.4490    -1.3610    -1.5190 ca         1 6VX      -0.083000
     24 H1           1.6660     0.4850    -1.4750 h1         1 6VX       0.101700
     25 H2          -0.3950     0.9920    -1.1900 hn         1 6VX       0.389500
     26 H3          -5.1880     1.4650    -2.0280 ha         1 6VX       0.125000
     27 H4          -7.4020     0.6540    -1.1890 ha         1 6VX       0.102000
     28 H5          -7.5010    -0.9570     0.7170 ha         1 6VX       0.100000
     29 H6          -5.3830    -1.7600     1.7870 ha         1 6VX       0.112000
     30 H7           3.1300    -0.7820     1.8370 ha         1 6VX       0.121500
     31 H8           4.9140    -2.4970     1.9050 ha         1 6VX       0.096500
     32 H9           5.7720    -3.5020    -0.2080 ha         1 6VX       0.092000
     33 H10          4.8310    -2.7760    -2.3990 ha         1 6VX       0.096500
     34 H11          3.0480    -1.0550    -2.4830 ha         1 6VX       0.121500
@<TRIPOS>BOND
     1     1     2 1   
     2     2     3 1   
     3     2     4 1   
     4     2     5 1   
     5     5     6 1   
     6     5    18 1   
     7     5    24 1   
     8     6     7 2   
     9     6     8 1   
    10     8     9 1   
    11     8    25 1   
    12     9    10 2   
    13     9    17 1   
    14    10    11 1   
    15    11    12 ar  
    16    11    16 ar  
    17    12    13 ar  
    18    12    26 1   
    19    13    14 ar  
    20    13    27 1   
    21    14    15 ar  
    22    14    28 1   
    23    15    16 ar  
    24    15    29 1   
    25    16    17 1   
    26    18    19 ar  
    27    18    23 ar  
    28    19    20 ar  
    29    19    30 1   
    30    20    21 ar  
    31    20    31 1   
    32    21    22 ar  
    33    21    32 1   
    34    22    23 ar  
    35    22    33 1   
    36    23    34 1   
@<TRIPOS>SUBSTRUCTURE
     1 6VX         1 TEMP              0 ****  ****    0 ROOT
