@<TRIPOS>MOLECULE
6VY
   32    33     1     0     0
SMALL
No Charge or Current Charge


@<TRIPOS>ATOM
      1 N01          1.5440    -0.1020    -0.4070 ns         1 6VY      -0.159000
      2 C02          0.3900     0.3080     0.2500 c          1 6VY       0.650100
      3 O03          0.3930     1.0620     1.2160 o          1 6VY      -0.603100
      4 C04         -0.8920    -0.2130    -0.3670 c3         1 6VY      -0.362400
      5 C05         -2.0750     0.7650    -0.2910 ca         1 6VY      -0.002300
      6 C06         -2.6000     1.3020    -1.4850 ca         1 6VY      -0.084000
      7 C07         -3.6810     2.2000    -1.4510 ca         1 6VY      -0.122000
      8 C08         -4.2490     2.5720    -0.2230 ca         1 6VY      -0.128000
      9 C09         -3.7340     2.0460     0.9720 ca         1 6VY      -0.122000
     10 C10         -2.6530     1.1480     0.9390 ca         1 6VY      -0.084000
     11 S11         -1.1990    -1.8470     0.2840 s6         1 6VY       1.311600
     12 O12         -0.0370    -2.6180    -0.1750 o          1 6VY      -0.674533
     13 O13         -1.2720    -1.6650     1.7390 o          1 6VY      -0.674533
     14 O14         -2.4670    -2.2400    -0.3460 o          1 6VY      -0.674533
     15 C15          2.9200     0.1940    -0.2070 ca         1 6VY       0.016000
     16 C16          3.8580    -0.5280    -0.9710 ca         1 6VY      -0.157500
     17 C17          5.2360    -0.2880    -0.8320 ca         1 6VY      -0.092500
     18 C18          5.6900     0.6820     0.0730 ca         1 6VY      -0.165000
     19 C19          4.7670     1.4130     0.8370 ca         1 6VY      -0.092500
     20 C20          3.3880     1.1730     0.6980 ca         1 6VY      -0.157500
     21 H011         1.3730    -0.7450    -1.1680 hn         1 6VY       0.198000
     22 H041        -0.6850    -0.4070    -1.4230 h1         1 6VY       0.094700
     23 H061        -2.1710     1.0230    -2.4440 ha         1 6VY       0.121000
     24 H071        -4.0770     2.6070    -2.3790 ha         1 6VY       0.094500
     25 H081        -5.0850     3.2670    -0.1970 ha         1 6VY       0.090000
     26 H091        -4.1700     2.3340     1.9260 ha         1 6VY       0.094500
     27 H101        -2.2630     0.7570     1.8750 ha         1 6VY       0.121000
     28 H161         3.5190    -1.2840    -1.6770 ha         1 6VY       0.135000
     29 H171         5.9500    -0.8550    -1.4270 ha         1 6VY       0.098000
     30 H181         6.7560     0.8700     0.1820 ha         1 6VY       0.096000
     31 H191         5.1190     2.1690     1.5360 ha         1 6VY       0.098000
     32 H201         2.7030     1.7640     1.2980 ha         1 6VY       0.135000
@<TRIPOS>BOND
     1     1     2 1   
     2     1    15 1   
     3     1    21 1   
     4     2     3 2   
     5     2     4 1   
     6     4     5 1   
     7     4    11 1   
     8     4    22 1   
     9     5     6 ar  
    10     5    10 ar  
    11     6     7 ar  
    12     6    23 1   
    13     7     8 ar  
    14     7    24 1   
    15     8     9 ar  
    16     8    25 1   
    17     9    10 ar  
    18     9    26 1   
    19    10    27 1   
    20    11    12 1   
    21    11    13 1   
    22    11    14 1   
    23    15    16 ar  
    24    15    20 ar  
    25    16    17 ar  
    26    16    28 1   
    27    17    18 ar  
    28    17    29 1   
    29    18    19 ar  
    30    18    30 1   
    31    19    20 ar  
    32    19    31 1   
    33    20    32 1   
@<TRIPOS>SUBSTRUCTURE
     1 6VY         1 TEMP              0 ****  ****    0 ROOT
