@<TRIPOS>MOLECULE
6VY
   32    33     1     0     0
SMALL
abcg2


@<TRIPOS>ATOM
      1 N01          1.5700    -0.0670    -0.4790 ns         1 6VY      -0.159000
      2 C02          0.4680     0.6640    -0.1920 c          1 6VY       0.650100
      3 O03          0.4810     1.7260     0.3980 o          1 6VY      -0.603100
      4 C04         -0.8300     0.0620    -0.7370 c3         1 6VY      -0.362400
      5 C05         -2.0430     0.8720    -0.4020 ca         1 6VY      -0.002300
      6 C06         -2.8450     1.3490    -1.4340 ca         1 6VY      -0.084000
      7 C07         -3.9890     2.0900    -1.1660 ca         1 6VY      -0.122000
      8 C08         -4.3460     2.3610     0.1460 ca         1 6VY      -0.128000
      9 C09         -3.5530     1.8860     1.1840 ca         1 6VY      -0.122000
     10 C10         -2.4100     1.1470     0.9150 ca         1 6VY      -0.084000
     11 S11         -1.0470    -1.6830    -0.1990 s6         1 6VY       1.311600
     12 O12          0.0410    -2.4140    -0.8930 o          1 6VY      -0.674533
     13 O13         -0.8910    -1.6660     1.2640 o          1 6VY      -0.674533
     14 O14         -2.3840    -2.0700    -0.6620 o          1 6VY      -0.674533
     15 C15          2.9070     0.1900    -0.1670 ca         1 6VY       0.016000
     16 C16          3.8170    -0.8330    -0.4510 ca         1 6VY      -0.157500
     17 C17          5.1680    -0.6710    -0.1950 ca         1 6VY      -0.092500
     18 C18          5.6410     0.5150     0.3510 ca         1 6VY      -0.165000
     19 C19          4.7400     1.5310     0.6320 ca         1 6VY      -0.092500
     20 C20          3.3810     1.3840     0.3810 ca         1 6VY      -0.157500
     21 H011         1.3880    -0.9770    -0.8940 hn         1 6VY       0.198000
     22 H041        -0.7310    -0.0000    -1.8260 h1         1 6VY       0.094700
     23 H061        -2.5710     1.1420    -2.4620 ha         1 6VY       0.121000
     24 H071        -4.5990     2.4530    -1.9840 ha         1 6VY       0.094500
     25 H081        -5.2360     2.9380     0.3620 ha         1 6VY       0.090000
     26 H091        -3.8270     2.0910     2.2110 ha         1 6VY       0.094500
     27 H101        -1.8110     0.7820     1.7370 ha         1 6VY       0.121000
     28 H161         3.4620    -1.7640    -0.8770 ha         1 6VY       0.135000
     29 H171         5.8510    -1.4780    -0.4250 ha         1 6VY       0.098000
     30 H181         6.6960     0.6460     0.5520 ha         1 6VY       0.096000
     31 H191         5.0920     2.4620     1.0560 ha         1 6VY       0.098000
     32 H201         2.7100     2.1950     0.6090 ha         1 6VY       0.135000
@<TRIPOS>BOND
     1     1     2 1   
     2     1    15 1   
     3     1    21 1   
     4     2     3 2   
     5     2     4 1   
     6     4     5 1   
     7     4    11 1   
     8     4    22 1   
     9     5     6 ar  
    10     5    10 ar  
    11     6     7 ar  
    12     6    23 1   
    13     7     8 ar  
    14     7    24 1   
    15     8     9 ar  
    16     8    25 1   
    17     9    10 ar  
    18     9    26 1   
    19    10    27 1   
    20    11    12 1   
    21    11    13 1   
    22    11    14 1   
    23    15    16 ar  
    24    15    20 ar  
    25    16    17 ar  
    26    16    28 1   
    27    17    18 ar  
    28    17    29 1   
    29    18    19 ar  
    30    18    30 1   
    31    19    20 ar  
    32    19    31 1   
    33    20    32 1   
@<TRIPOS>SUBSTRUCTURE
     1 6VY         1 TEMP              0 ****  ****    0 ROOT
