@<TRIPOS>MOLECULE
6VZ
   73    77     1     0     0
SMALL
abcg2


@<TRIPOS>ATOM
      1 C1          45.5120    23.4980    47.0650 c5         1 6VZ       0.032700
      2 C2          44.4450    24.5320    47.4450 c5         1 6VZ      -0.087400
      3 C3          43.5470    23.7810    48.4340 c5         1 6VZ       0.160500
      4 C11         46.7410    20.4000    51.8040 ca         1 6VZ       0.154100
      5 C12         46.6510    21.2190    50.6810 ca         1 6VZ      -0.173000
      6 C13         46.4020    20.6630    49.4260 ca         1 6VZ      -0.098600
      7 C14         46.2430    19.2890    49.2920 ca         1 6VZ      -0.106000
      8 C18         47.1200    22.2850    53.2320 c3         1 6VZ       0.145900
      9 C23         41.8850    25.5200    48.4710 c6         1 6VZ       0.107500
     10 C24         41.3440    24.8500    51.2840 c6         1 6VZ      -0.007100
     11 C25         41.9420    23.9070    50.2490 c6         1 6VZ       0.160800
     12 C26         40.7050    26.0350    50.6260 ca         1 6VZ      -0.187300
     13 C27         40.9480    26.3460    49.3040 ca         1 6VZ       0.133300
     14 C29         39.5300    28.1140    49.4170 ca         1 6VZ       0.155900
     15 C4          44.5650    22.9640    49.2350 c5         1 6VZ       0.111000
     16 N5          45.5840    22.6290    48.2380 n          1 6VZ      -0.396800
     17 C6          46.8560    24.1610    46.7610 c          1 6VZ       0.598100
     18 N7          47.1130    24.3430    45.4580 ns         1 6VZ      -0.501900
     19 O8          47.6080    24.5470    47.6550 o          1 6VZ      -0.593100
     20 C9          46.3120    18.4830    50.4240 ca         1 6VZ      -0.087000
     21 C10         46.5640    19.0090    51.6850 ca         1 6VZ      -0.098300
     22 O17         46.9850    20.8750    53.0540 os         1 6VZ      -0.338100
     23 N20         48.0830    17.7990    53.1830 n8         1 6VZ      -0.988200
     24 N22         42.7440    24.6570    49.2780 n3         1 6VZ      -0.710600
     25 N28         40.3550    27.3890    48.6840 nb         1 6VZ      -0.206000
     26 N30         39.2300    27.9260    50.7060 nb         1 6VZ      -0.267000
     27 C31         39.8170    26.8950    51.3000 ca         1 6VZ       0.355300
     28 O32         39.5800    26.6290    52.5840 os         1 6VZ      -0.466300
     29 C33         38.6380    27.4490    53.3120 c3         1 6VZ       0.176600
     30 C34         38.4880    26.8630    54.7010 c3         1 6VZ      -0.052400
     31 C35         37.8490    25.4950    54.7200 cx         1 6VZ      -0.124700
     32 C36         38.0220    24.6010    55.9170 cx         1 6VZ      -0.128400
     33 C37         38.6900    24.2530    54.6110 cx         1 6VZ      -0.128400
     34 H1          45.1940    22.9120    46.1990 h1         1 6VZ       0.061700
     35 H2          44.9060    25.3780    47.9610 hc         1 6VZ       0.072200
     36 H3          43.9220    24.8990    46.5650 hc         1 6VZ       0.072200
     37 H4          42.9010    23.0860    47.8700 h1         1 6VZ       0.031700
     38 H5          46.7870    22.2850    50.7710 ha         1 6VZ       0.131000
     39 H6          46.0570    18.8580    48.3180 ha         1 6VZ       0.129000
     40 H7          47.2820    22.4350    54.2960 h1         1 6VZ       0.043700
     41 H8          47.9740    22.6710    52.6710 h1         1 6VZ       0.043700
     42 H9          46.2120    22.8080    52.9200 h1         1 6VZ       0.043700
     43 H10         46.2430    18.5900    53.7570 h1         1 6VZ       0.037700
     44 H11         46.0790    17.2000    52.6830 h1         1 6VZ       0.037700
     45 H12         48.2720    25.0630    43.9000 h1         1 6VZ       0.042367
     46 H13         48.3650    26.0310    45.3850 h1         1 6VZ       0.042367
     47 H14         49.2080    24.4770    45.2900 h1         1 6VZ       0.042367
     48 H15         42.4950    26.2000    47.8790 h1         1 6VZ       0.061700
     49 H16         41.2770    24.9330    47.7580 h1         1 6VZ       0.061700
     50 H17         40.6070    24.3170    51.8880 hc         1 6VZ       0.064700
     51 H18         42.1250    25.1870    51.9730 hc         1 6VZ       0.064700
     52 H19         41.1390    23.3470    49.7410 h1         1 6VZ       0.038700
     53 H20         42.5760    23.1810    50.7520 h1         1 6VZ       0.038700
     54 H21         39.0450    28.9550    48.9300 h5         1 6VZ       0.050100
     55 H22         44.1520    22.0590    49.6720 h1         1 6VZ       0.063200
     56 H23         44.9770    23.5870    50.0340 h1         1 6VZ       0.063200
     57 H24         46.4730    23.9650    44.7790 hn         1 6VZ       0.314500
     58 H25         46.1670    17.4140    50.3290 ha         1 6VZ       0.113000
     59 H26         48.1300    17.2090    54.0080 hn         1 6VZ       0.392000
     60 H27         48.4760    17.2530    52.4230 hn         1 6VZ       0.392000
     61 H30         39.0170    28.4710    53.3490 h1         1 6VZ       0.053700
     62 H31         37.6870    27.4530    52.7760 h1         1 6VZ       0.053700
     63 H32         39.4680    26.8250    55.1860 hc         1 6VZ       0.056200
     64 H33         37.8780    27.5660    55.2780 hc         1 6VZ       0.056200
     65 H34         36.8780    25.4520    54.2360 hc         1 6VZ       0.075700
     66 H35         37.1780    24.0020    56.2370 hc         1 6VZ       0.071200
     67 H36         38.6500    24.9620    56.7220 hc         1 6VZ       0.071200
     68 H37         38.3020    23.4180    54.0430 hc         1 6VZ       0.071200
     69 H38         39.7620    24.3850    54.5430 hc         1 6VZ       0.071200
     70 C15         46.3550    21.5230    48.2030 c          1 6VZ       0.618700
     71 C19         46.6710    18.1020    52.8820 c3         1 6VZ       0.204100
     72 C21         48.3090    25.0170    44.9860 c3         1 6VZ       0.098300
     73 O16         47.0130    21.2320    47.1970 o          1 6VZ      -0.601100
@<TRIPOS>BOND
     1     1     2 1   
     2     1    16 1   
     3     1    17 1   
     4     1    34 1   
     5     2     3 1   
     6     2    35 1   
     7     2    36 1   
     8     3    15 1   
     9     3    24 1   
    10     3    37 1   
    11     4     5 ar  
    12     4    21 ar  
    13     4    22 1   
    14     5     6 ar  
    15     5    38 1   
    16     6     7 ar  
    17     6    70 1   
    18     7    20 ar  
    19     7    39 1   
    20     8    22 1   
    21     8    40 1   
    22     8    41 1   
    23     8    42 1   
    24     9    13 1   
    25     9    24 1   
    26     9    48 1   
    27     9    49 1   
    28    10    11 1   
    29    10    12 1   
    30    10    50 1   
    31    10    51 1   
    32    11    24 1   
    33    11    52 1   
    34    11    53 1   
    35    12    13 ar  
    36    12    27 ar  
    37    13    25 ar  
    38    14    25 ar  
    39    14    26 ar  
    40    14    54 1   
    41    15    16 1   
    42    15    55 1   
    43    15    56 1   
    44    16    70 1   
    45    17    18 1   
    46    17    19 2   
    47    18    57 1   
    48    18    72 1   
    49    20    21 ar  
    50    20    58 1   
    51    21    71 1   
    52    23    59 1   
    53    23    60 1   
    54    23    71 1   
    55    26    27 ar  
    56    27    28 1   
    57    28    29 1   
    58    29    30 1   
    59    29    61 1   
    60    29    62 1   
    61    30    31 1   
    62    30    63 1   
    63    30    64 1   
    64    31    32 1   
    65    31    33 1   
    66    31    65 1   
    67    32    33 1   
    68    32    66 1   
    69    32    67 1   
    70    33    68 1   
    71    33    69 1   
    72    43    71 1   
    73    44    71 1   
    74    45    72 1   
    75    46    72 1   
    76    47    72 1   
    77    70    73 2   
@<TRIPOS>SUBSTRUCTURE
     1 6VZ         1 TEMP              0 ****  ****    0 ROOT
