@<TRIPOS>MOLECULE
6VZ
   73    77     1     0     0
SMALL
No Charge or Current Charge


@<TRIPOS>ATOM
      1 C1          45.5630    23.3820    46.9950 c5         1 6VZ       0.032700
      2 C2          44.6030    24.5070    47.4790 c5         1 6VZ      -0.087400
      3 C3          43.5270    23.6740    48.2260 c5         1 6VZ       0.160500
      4 C11         46.6840    20.4520    51.9590 ca         1 6VZ       0.154100
      5 C12         46.5440    21.1840    50.7570 ca         1 6VZ      -0.173000
      6 C13         46.4640    20.5250    49.5070 ca         1 6VZ      -0.098600
      7 C14         46.5720    19.1200    49.4790 ca         1 6VZ      -0.106000
      8 C18         46.6370    22.5110    53.3360 c3         1 6VZ       0.145900
      9 C23         42.0150    25.6870    48.4270 c6         1 6VZ       0.107500
     10 C24         41.2630    24.8140    51.1650 c6         1 6VZ      -0.007100
     11 C25         41.8060    23.8750    50.0580 c6         1 6VZ       0.160800
     12 C26         40.7720    26.1590    50.6220 ca         1 6VZ      -0.187300
     13 C27         41.1440    26.5720    49.3300 ca         1 6VZ       0.133300
     14 C29         39.9670    28.5170    49.6200 ca         1 6VZ       0.155900
     15 C4          44.4310    22.7370    49.0870 c5         1 6VZ       0.111000
     16 N5          45.5930    22.4990    48.1950 n          1 6VZ      -0.396800
     17 C6          46.9370    24.0190    46.6110 c          1 6VZ       0.598100
     18 N7          46.8760    24.4950    45.3170 ns         1 6VZ      -0.501900
     19 O8          47.9450    24.0990    47.3030 o          1 6VZ      -0.593100
     20 C9          46.7140    18.3870    50.6670 ca         1 6VZ      -0.087000
     21 C10         46.7680    19.0410    51.9130 ca         1 6VZ      -0.098300
     22 O17         46.7450    21.0840    53.1890 os         1 6VZ      -0.338100
     23 N20         48.2890    17.7040    53.3580 n8         1 6VZ      -0.988200
     24 N22         42.7450    24.5820    49.1330 n3         1 6VZ      -0.710600
     25 N28         40.7380    27.7530    48.8200 nb         1 6VZ      -0.206000
     26 N30         39.5630    28.2190    50.8720 nb         1 6VZ      -0.267000
     27 C31         39.9690    27.0340    51.3800 ca         1 6VZ       0.355300
     28 O32         39.6090    26.6560    52.6560 os         1 6VZ      -0.466300
     29 C33         38.7350    27.4690    53.4610 c3         1 6VZ       0.176600
     30 C34         38.5150    26.7510    54.8100 c3         1 6VZ      -0.052400
     31 C35         37.8010    25.4050    54.6850 cx         1 6VZ      -0.124700
     32 C36         37.9060    24.3670    55.7770 cx         1 6VZ      -0.128400
     33 C37         38.5700    24.1270    54.4400 cx         1 6VZ      -0.128400
     34 H1          45.1540    22.8420    46.1300 h1         1 6VZ       0.061700
     35 H2          45.1100    25.2080    48.1540 hc         1 6VZ       0.072200
     36 H3          44.1930    25.0840    46.6430 hc         1 6VZ       0.072200
     37 H4          42.8910    23.1080    47.5310 h1         1 6VZ       0.031700
     38 H5          46.5300    22.2680    50.7780 ha         1 6VZ       0.131000
     39 H6          46.5320    18.5910    48.5290 ha         1 6VZ       0.129000
     40 H7          46.6950    22.7890    54.3960 h1         1 6VZ       0.043700
     41 H8          47.4530    23.0210    52.8070 h1         1 6VZ       0.043700
     42 H9          45.6790    22.8730    52.9420 h1         1 6VZ       0.043700
     43 H10         46.6300    18.7880    54.0710 h1         1 6VZ       0.037700
     44 H11         46.2300    17.3440    53.1240 h1         1 6VZ       0.037700
     45 H12         47.6820    25.4350    43.6170 h1         1 6VZ       0.042367
     46 H13         48.2860    26.0520    45.1850 h1         1 6VZ       0.042367
     47 H14         48.8440    24.4630    44.5710 h1         1 6VZ       0.042367
     48 H15         42.7280    26.3460    47.9110 h1         1 6VZ       0.061700
     49 H16         41.3620    25.2640    47.6490 h1         1 6VZ       0.061700
     50 H17         40.4560    24.3010    51.7050 hc         1 6VZ       0.064700
     51 H18         42.0590    24.9970    51.8990 hc         1 6VZ       0.064700
     52 H19         40.9580    23.4690    49.4870 h1         1 6VZ       0.038700
     53 H20         42.2920    23.0230    50.5520 h1         1 6VZ       0.038700
     54 H21         39.6370    29.4710    49.2130 h5         1 6VZ       0.050100
     55 H22         43.9130    21.8060    49.3570 h1         1 6VZ       0.063200
     56 H23         44.7450    23.2440    50.0080 h1         1 6VZ       0.063200
     57 H24         46.0010    24.3780    44.8200 hn         1 6VZ       0.314500
     58 H25         46.7810    17.3020    50.6190 ha         1 6VZ       0.113000
     59 H26         48.3110    17.0710    54.1660 hn         1 6VZ       0.392000
     60 H27         48.5210    17.0980    52.5640 hn         1 6VZ       0.392000
     61 H30         39.1820    28.4560    53.6450 h1         1 6VZ       0.053700
     62 H31         37.7670    27.6170    52.9640 h1         1 6VZ       0.053700
     63 H32         39.4860    26.6260    55.3050 hc         1 6VZ       0.056200
     64 H33         37.9250    27.4100    55.4580 hc         1 6VZ       0.056200
     65 H34         36.8340    25.4930    54.1940 hc         1 6VZ       0.075700
     66 H35         37.0170    23.7870    56.0130 hc         1 6VZ       0.071200
     67 H36         38.5480    24.5810    56.6290 hc         1 6VZ       0.071200
     68 H37         38.1260    23.3900    53.7750 hc         1 6VZ       0.071200
     69 H38         39.6550    24.1850    54.3940 hc         1 6VZ       0.071200
     70 C15         46.3160    21.2850    48.2010 c          1 6VZ       0.618700
     71 C19         46.9110    18.2060    53.1830 c3         1 6VZ       0.204100
     72 C21         47.9910    25.1510    44.6310 c3         1 6VZ       0.098300
     73 O16         46.8610    20.8850    47.1780 o          1 6VZ      -0.601100
@<TRIPOS>BOND
     1     1     2 1   
     2     1    16 1   
     3     1    17 1   
     4     1    34 1   
     5     2     3 1   
     6     2    35 1   
     7     2    36 1   
     8     3    15 1   
     9     3    24 1   
    10     3    37 1   
    11     4     5 ar  
    12     4    21 ar  
    13     4    22 1   
    14     5     6 ar  
    15     5    38 1   
    16     6     7 ar  
    17     6    70 1   
    18     7    20 ar  
    19     7    39 1   
    20     8    22 1   
    21     8    40 1   
    22     8    41 1   
    23     8    42 1   
    24     9    13 1   
    25     9    24 1   
    26     9    48 1   
    27     9    49 1   
    28    10    11 1   
    29    10    12 1   
    30    10    50 1   
    31    10    51 1   
    32    11    24 1   
    33    11    52 1   
    34    11    53 1   
    35    12    13 ar  
    36    12    27 ar  
    37    13    25 ar  
    38    14    25 ar  
    39    14    26 ar  
    40    14    54 1   
    41    15    16 1   
    42    15    55 1   
    43    15    56 1   
    44    16    70 1   
    45    17    18 1   
    46    17    19 2   
    47    18    57 1   
    48    18    72 1   
    49    20    21 ar  
    50    20    58 1   
    51    21    71 1   
    52    23    59 1   
    53    23    60 1   
    54    23    71 1   
    55    26    27 ar  
    56    27    28 1   
    57    28    29 1   
    58    29    30 1   
    59    29    61 1   
    60    29    62 1   
    61    30    31 1   
    62    30    63 1   
    63    30    64 1   
    64    31    32 1   
    65    31    33 1   
    66    31    65 1   
    67    32    33 1   
    68    32    66 1   
    69    32    67 1   
    70    33    68 1   
    71    33    69 1   
    72    43    71 1   
    73    44    71 1   
    74    45    72 1   
    75    46    72 1   
    76    47    72 1   
    77    70    73 2   
@<TRIPOS>SUBSTRUCTURE
     1 6VZ         1 TEMP              0 ****  ****    0 ROOT
