@<TRIPOS>MOLECULE
6W0
   37    39     1     0     0
SMALL
No Charge or Current Charge


@<TRIPOS>ATOM
      1 CAB         -3.4340    -2.5800     0.3410 c3         1 6W0       0.063900
      2 CAD          4.0340    -2.3860    -0.0900 ca         1 6W0      -0.089000
      3 CAE         -5.5830     1.4410    -0.0880 cc         1 6W0      -0.201000
      4 CAH         -5.3210     0.0860     0.0820 cd         1 6W0      -0.119000
      5 CAI          2.9580     0.1830    -0.3950 ca         1 6W0      -0.142000
      6 CAP          4.3540     0.0020    -0.4470 ca         1 6W0      -0.058300
      7 CAA          6.4680     2.9180     0.5350 c3         1 6W0       0.143900
      8 OAM          5.5980     1.7760     0.6050 os         1 6W0      -0.448000
      9 CAK          5.2770     1.1940    -0.6700 c3         1 6W0       0.202900
     10 CAF          4.8880    -1.2910    -0.2920 ca         1 6W0      -0.124000
     11 CAG          2.6420    -2.2000    -0.0410 ca         1 6W0      -0.125000
     12 CAQ          2.0900    -0.9080    -0.1930 ca         1 6W0      -0.022000
     13 NAL          0.6940    -0.6360    -0.1530 ns         1 6W0      -0.140000
     14 OAC         -0.3630    -2.6630     0.1820 o          1 6W0      -0.589100
     15 CAR         -1.7030    -0.7050    -0.0110 cc         1 6W0      -0.223600
     16 CAJ         -1.8490     0.6770    -0.1910 cd         1 6W0      -0.100000
     17 CAS         -3.1770     0.9310    -0.1520 cc         1 6W0      -0.222000
     18 SAN         -4.0840     2.4110    -0.3040 ss         1 6W0       0.188000
     19 CAT         -3.9270    -0.1280     0.0340 cd         1 6W0      -0.116000
     20 NAU         -3.0350    -1.1810     0.1280 na         1 6W0       0.075000
     21 H1          -2.9870    -2.9490     1.2710 h1         1 6W0       0.060033
     22 H2          -4.5260    -2.6530     0.4130 h1         1 6W0       0.060033
     23 H3          -3.0870    -3.1910    -0.5000 h1         1 6W0       0.060033
     24 H4           4.4520    -3.3840     0.0290 ha         1 6W0       0.115000
     25 H5          -6.5400     1.9470    -0.1040 h4         1 6W0       0.148000
     26 H7          -6.0740    -0.6830     0.2290 ha         1 6W0       0.138000
     27 H9           2.5470     1.1840    -0.5120 ha         1 6W0       0.117000
     28 H10          7.4280     2.6500     0.0750 h1         1 6W0       0.029033
     29 H11          6.0100     3.7210    -0.0570 h1         1 6W0       0.029033
     30 H12          6.6680     3.3070     1.5410 h1         1 6W0       0.029033
     31 H13          6.1890     0.8600    -1.1830 h1         1 6W0       0.028700
     32 H14          4.7770     1.9280    -1.3150 h1         1 6W0       0.028700
     33 H15          5.9640    -1.4450    -0.3270 ha         1 6W0       0.114000
     34 H16          2.0140    -3.0710     0.1170 ha         1 6W0       0.145000
     35 H17          0.4680     0.3420    -0.2750 hn         1 6W0       0.159000
     36 H19         -1.0650     1.4160    -0.3360 ha         1 6W0       0.140000
     37 CAO         -0.4180    -1.4500     0.0200 c          1 6W0       0.646700
@<TRIPOS>BOND
     1     1    20 1   
     2     1    21 1   
     3     1    22 1   
     4     1    23 1   
     5     2    10 ar  
     6     2    11 ar  
     7     2    24 1   
     8     3     4 2   
     9     3    18 1   
    10     3    25 1   
    11     4    19 1   
    12     4    26 1   
    13     5     6 ar  
    14     5    12 ar  
    15     5    27 1   
    16     6     9 1   
    17     6    10 ar  
    18     7     8 1   
    19     7    28 1   
    20     7    29 1   
    21     7    30 1   
    22     8     9 1   
    23     9    31 1   
    24     9    32 1   
    25    10    33 1   
    26    11    12 ar  
    27    11    34 1   
    28    12    13 1   
    29    13    35 1   
    30    13    37 1   
    31    14    37 2   
    32    15    16 2   
    33    15    20 1   
    34    15    37 1   
    35    16    17 1   
    36    16    36 1   
    37    17    18 1   
    38    17    19 2   
    39    19    20 1   
@<TRIPOS>SUBSTRUCTURE
     1 6W0         1 TEMP              0 ****  ****    0 ROOT
