@<TRIPOS>MOLECULE
6W0
   37    39     1     0     0
SMALL
abcg2


@<TRIPOS>ATOM
      1 CAB         -2.9930    -2.1880     1.1220 c3         1 6W0       0.063900
      2 CAD          3.8660    -2.4260    -0.7370 ca         1 6W0      -0.089000
      3 CAE         -5.6690     1.1340    -0.3080 cc         1 6W0      -0.201000
      4 CAH         -5.1850     0.0050     0.2730 cd         1 6W0      -0.119000
      5 CAI          3.0170     0.1610    -0.3190 ca         1 6W0      -0.142000
      6 CAP          4.3760    -0.0970    -0.4440 ca         1 6W0      -0.058300
      7 CAA          6.0510     2.8210     0.9670 c3         1 6W0       0.143900
      8 OAM          5.1800     1.7250     0.8450 os         1 6W0      -0.448000
      9 CAK          5.3620     1.0320    -0.3640 c3         1 6W0       0.202900
     10 CAF          4.8010    -1.4050    -0.6480 ca         1 6W0      -0.124000
     11 CAG          2.5080    -2.1740    -0.6170 ca         1 6W0      -0.125000
     12 CAQ          2.0740    -0.8630    -0.4040 ca         1 6W0      -0.022000
     13 NAL          0.7330    -0.4840    -0.2950 ns         1 6W0      -0.140000
     14 OAC         -0.3390    -2.4800    -0.0300 o          1 6W0      -0.589100
     15 CAR         -1.6330    -0.5150    -0.2260 cc         1 6W0      -0.223600
     16 CAJ         -1.8830     0.6750    -0.8910 cd         1 6W0      -0.100000
     17 CAS         -3.2550     0.9180    -0.7370 cc         1 6W0      -0.222000
     18 SAN         -4.4730     2.0620    -1.1590 ss         1 6W0       0.188000
     19 CAT         -3.7910    -0.1190     0.0150 cd         1 6W0      -0.116000
     20 NAU         -2.8020    -0.9940     0.3230 na         1 6W0       0.075000
     21 H1          -2.2170    -2.2770     1.8780 h1         1 6W0       0.060033
     22 H2          -3.9510    -2.1110     1.6280 h1         1 6W0       0.060033
     23 H3          -2.9940    -3.0840     0.5050 h1         1 6W0       0.060033
     24 H4           4.1960    -3.4440    -0.9000 ha         1 6W0       0.115000
     25 H5          -6.6890     1.4850    -0.2880 h4         1 6W0       0.148000
     26 H7          -5.7940    -0.6850     0.8370 ha         1 6W0       0.138000
     27 H9           2.6790     1.1800    -0.1620 ha         1 6W0       0.117000
     28 H10          7.1030     2.5130     0.9560 h1         1 6W0       0.029033
     29 H11          5.9070     3.5510     0.1610 h1         1 6W0       0.029033
     30 H12          5.8450     3.3120     1.9170 h1         1 6W0       0.029033
     31 H13          6.3850     0.6380    -0.4440 h1         1 6W0       0.028700
     32 H14          5.2220     1.7100    -1.2190 h1         1 6W0       0.028700
     33 H15          5.8580    -1.6230    -0.7400 ha         1 6W0       0.114000
     34 H16          1.8090    -2.9900    -0.6900 ha         1 6W0       0.145000
     35 H17          0.5820     0.5120    -0.2340 hn         1 6W0       0.159000
     36 H19         -1.1660     1.2630    -1.4420 ha         1 6W0       0.140000
     37 CAO         -0.3710    -1.2680    -0.1660 c          1 6W0       0.646700
@<TRIPOS>BOND
     1     1    20 1   
     2     1    21 1   
     3     1    22 1   
     4     1    23 1   
     5     2    10 ar  
     6     2    11 ar  
     7     2    24 1   
     8     3     4 2   
     9     3    18 1   
    10     3    25 1   
    11     4    19 1   
    12     4    26 1   
    13     5     6 ar  
    14     5    12 ar  
    15     5    27 1   
    16     6     9 1   
    17     6    10 ar  
    18     7     8 1   
    19     7    28 1   
    20     7    29 1   
    21     7    30 1   
    22     8     9 1   
    23     9    31 1   
    24     9    32 1   
    25    10    33 1   
    26    11    12 ar  
    27    11    34 1   
    28    12    13 1   
    29    13    35 1   
    30    13    37 1   
    31    14    37 2   
    32    15    16 2   
    33    15    20 1   
    34    15    37 1   
    35    16    17 1   
    36    16    36 1   
    37    17    18 1   
    38    17    19 2   
    39    19    20 1   
@<TRIPOS>SUBSTRUCTURE
     1 6W0         1 TEMP              0 ****  ****    0 ROOT
