@<TRIPOS>MOLECULE
6W1
   60    64     1     0     0
SMALL
No Charge or Current Charge


@<TRIPOS>ATOM
      1 N1          -8.4980    53.2950    80.7850 ns         1 6W1      -0.151000
      2 C2          -7.9600    54.5710    80.7600 c          1 6W1       0.644700
      3 O2          -3.7260    52.5350    84.9850 os         1 6W1      -0.350100
      4 C4          -9.9260    53.1480    78.7720 ca         1 6W1      -0.112000
      5 C6         -10.5180    50.9700    77.8680 ca         1 6W1      -0.127000
      6 C7          -9.7740    50.3450    78.8820 ca         1 6W1      -0.075000
      7 C8          -9.1010    51.1170    79.8500 ca         1 6W1      -0.141300
      8 C9          -8.2760    50.4200    80.9320 c3         1 6W1       0.213900
      9 C10         -6.0920    51.1640    81.7990 ca         1 6W1       0.078100
     10 O           -7.9720    55.2900    79.7660 o          1 6W1      -0.595100
     11 C1          -7.3330    54.9740    82.0470 cc         1 6W1      -0.213600
     12 C21         -7.3600    54.2130    83.2150 cd         1 6W1      -0.090000
     13 C22         -6.6610    54.9390    84.1860 cd         1 6W1      -0.214000
     14 C25         -6.2090    56.0750    83.6830 cc         1 6W1      -0.121000
     15 C24         -5.4660    56.8930    84.5580 cc         1 6W1      -0.127000
     16 C23         -5.3720    56.3010    85.8060 cd         1 6W1      -0.198000
     17 S           -6.2290    54.7160    85.8780 ss         1 6W1       0.191000
     18 N           -6.6070    56.1550    82.3540 na         1 6W1       0.065000
     19 C           -6.3080    57.2600    81.4330 c3         1 6W1       0.066900
     20 C3          -9.1740    52.5320    79.7950 ca         1 6W1      -0.007000
     21 C5         -10.5950    52.3700    77.8130 ca         1 6W1      -0.084000
     22 O1          -6.8990    50.7990    80.7440 os         1 6W1      -0.357100
     23 C20         -6.2900    50.6760    83.1070 ca         1 6W1      -0.120000
     24 C19         -5.4730    51.1370    84.1560 ca         1 6W1      -0.141000
     25 C13         -4.4660    52.0850    83.9120 ca         1 6W1       0.127100
     26 C12         -4.2540    52.5540    82.5960 ca         1 6W1      -0.141000
     27 C11         -5.0630    52.0850    81.5470 ca         1 6W1      -0.120000
     28 C14         -2.8330    53.6570    84.8720 c3         1 6W1       0.166600
     29 C15         -2.3100    53.9900    86.2850 c5         1 6W1      -0.072700
     30 C18         -1.4480    52.8740    86.9500 c5         1 6W1       0.155800
     31 N2          -0.4020    53.5680    87.7580 n7         1 6W1      -0.859400
     32 C17         -0.7860    54.9970    87.7670 c5         1 6W1       0.146800
     33 C16         -1.3510    55.2040    86.3470 c5         1 6W1      -0.074400
     34 H1          -8.3420    52.7990    81.6510 hn         1 6W1       0.156000
     35 H2         -10.0120    54.2310    78.7210 ha         1 6W1       0.134000
     36 H3         -11.0350    50.3670    77.1240 ha         1 6W1       0.117000
     37 H4          -9.7180    49.2590    78.9110 ha         1 6W1       0.113000
     38 H5          -8.6540    50.7440    81.9100 h1         1 6W1       0.047700
     39 H6          -8.3880    49.3290    80.8710 h1         1 6W1       0.047700
     40 H7          -7.8280    53.2450    83.3660 ha         1 6W1       0.139000
     41 H8          -5.0310    57.8480    84.2790 ha         1 6W1       0.135000
     42 H9          -4.8670    56.6790    86.6860 h4         1 6W1       0.149000
     43 H10         -5.7130    58.0260    81.9450 h1         1 6W1       0.059700
     44 H11         -5.7410    56.8780    80.5760 h1         1 6W1       0.059700
     45 H12         -7.2450    57.7070    81.0820 h1         1 6W1       0.059700
     46 H13        -11.1750    52.8530    77.0300 ha         1 6W1       0.117000
     47 H14         -7.0670    49.9460    83.3200 ha         1 6W1       0.124000
     48 H15         -5.6320    50.7710    85.1670 ha         1 6W1       0.122000
     49 H16         -3.4800    53.2820    82.3730 ha         1 6W1       0.122000
     50 H17         -4.9110    52.4590    80.5370 ha         1 6W1       0.124000
     51 H18         -1.9890    53.4210    84.2110 h1         1 6W1       0.037700
     52 H19         -3.3600    54.5320    84.4710 h1         1 6W1       0.037700
     53 H20         -3.1930    54.1900    86.9030 hc         1 6W1       0.074700
     54 H21         -2.0740    52.2290    87.5820 h1         1 6W1       0.042700
     55 H22         -0.9720    52.2300    86.1960 h1         1 6W1       0.042700
     56 H23          0.4870    53.4890    87.2470 hn         1 6W1       0.411000
     57 H25          0.0710    55.6510    87.9790 h1         1 6W1       0.036200
     58 H26         -1.5570    55.1870    88.5290 h1         1 6W1       0.036200
     59 H27         -0.5660    55.1570    85.5830 hc         1 6W1       0.045200
     60 H28         -1.8720    56.1620    86.2360 hc         1 6W1       0.045200
@<TRIPOS>BOND
     1     1     2 1   
     2     1    20 1   
     3     1    34 1   
     4     2    10 2   
     5     2    11 1   
     6     3    25 1   
     7     3    28 1   
     8     4    20 ar  
     9     4    21 ar  
    10     4    35 1   
    11     5     6 ar  
    12     5    21 ar  
    13     5    36 1   
    14     6     7 ar  
    15     6    37 1   
    16     7     8 1   
    17     7    20 ar  
    18     8    22 1   
    19     8    38 1   
    20     8    39 1   
    21     9    22 1   
    22     9    23 ar  
    23     9    27 ar  
    24    11    12 2   
    25    11    18 1   
    26    12    13 1   
    27    12    40 1   
    28    13    14 2   
    29    13    17 1   
    30    14    15 1   
    31    14    18 1   
    32    15    16 2   
    33    15    41 1   
    34    16    17 1   
    35    16    42 1   
    36    18    19 1   
    37    19    43 1   
    38    19    44 1   
    39    19    45 1   
    40    21    46 1   
    41    23    24 ar  
    42    23    47 1   
    43    24    25 ar  
    44    24    48 1   
    45    25    26 ar  
    46    26    27 ar  
    47    26    49 1   
    48    27    50 1   
    49    28    29 1   
    50    28    51 1   
    51    28    52 1   
    52    29    30 1   
    53    29    33 1   
    54    29    53 1   
    55    30    31 1   
    56    30    54 1   
    57    30    55 1   
    58    31    32 1   
    59    31    56 1   
    60    32    33 1   
    61    32    57 1   
    62    32    58 1   
    63    33    59 1   
    64    33    60 1   
@<TRIPOS>SUBSTRUCTURE
     1 6W1         1 TEMP              0 ****  ****    0 ROOT
