@<TRIPOS>MOLECULE
6W1
   60    64     1     0     0
SMALL
abcg2


@<TRIPOS>ATOM
      1 N1          -8.5720    53.1160    81.1080 ns         1 6W1      -0.151000
      2 C2          -7.8830    54.3010    81.1080 c          1 6W1       0.644700
      3 O2          -3.9370    52.6640    84.9380 os         1 6W1      -0.350100
      4 C4          -9.9330    53.2360    79.0920 ca         1 6W1      -0.112000
      5 C6         -10.3380    51.2520    77.7830 ca         1 6W1      -0.127000
      6 C7          -9.5520    50.5220    78.6670 ca         1 6W1      -0.075000
      7 C8          -8.9410    51.1290    79.7610 ca         1 6W1      -0.141300
      8 C9          -8.0550    50.3270    80.6730 c3         1 6W1       0.213900
      9 C10         -6.0160    51.2140    81.6420 ca         1 6W1       0.078100
     10 O           -7.7010    54.9630    80.0870 o          1 6W1      -0.595100
     11 C1          -7.3830    54.7080    82.4240 cc         1 6W1      -0.213600
     12 C21         -7.7830    54.2650    83.6830 cd         1 6W1      -0.090000
     13 C22         -7.0170    54.9840    84.6160 cd         1 6W1      -0.214000
     14 C25         -6.1730    55.8480    83.9070 cc         1 6W1      -0.121000
     15 C24         -5.3360    56.6550    84.7270 cc         1 6W1      -0.127000
     16 C23         -5.5580    56.3850    86.0440 cd         1 6W1      -0.198000
     17 S           -6.7720    55.1620    86.3210 ss         1 6W1       0.191000
     18 N           -6.3980    55.6790    82.5720 na         1 6W1       0.065000
     19 C           -5.6200    56.3290    81.5260 c3         1 6W1       0.066900
     20 C3          -9.1460    52.5020    79.9770 ca         1 6W1      -0.007000
     21 C5         -10.5200    52.6140    77.9960 ca         1 6W1      -0.084000
     22 O1          -6.6900    50.7720    80.5290 os         1 6W1      -0.357100
     23 C20         -6.1490    50.6310    82.9020 ca         1 6W1      -0.120000
     24 C19         -5.4400    51.1420    83.9800 ca         1 6W1      -0.141000
     25 C13         -4.5760    52.2250    83.8150 ca         1 6W1       0.127100
     26 C12         -4.4190    52.7860    82.5480 ca         1 6W1      -0.141000
     27 C11         -5.1440    52.2820    81.4740 ca         1 6W1      -0.120000
     28 C14         -3.1010    53.8200    84.8300 c3         1 6W1       0.166600
     29 C15         -2.6540    54.2160    86.2180 c5         1 6W1      -0.072700
     30 C18         -1.7690    53.1730    86.9170 c5         1 6W1       0.155800
     31 N2          -0.9360    53.9900    87.8050 n7         1 6W1      -0.859400
     32 C17         -0.5040    55.1170    86.9680 c5         1 6W1       0.146800
     33 C16         -1.7820    55.5010    86.2040 c5         1 6W1      -0.074400
     34 H1          -8.4820    52.5500    81.9370 hn         1 6W1       0.156000
     35 H2         -10.0900    54.2900    79.2710 ha         1 6W1       0.134000
     36 H3         -10.8000    50.7640    76.9350 ha         1 6W1       0.117000
     37 H4          -9.3950    49.4620    78.5040 ha         1 6W1       0.113000
     38 H5          -8.3680    50.4190    81.7140 h1         1 6W1       0.047700
     39 H6          -8.1010    49.2710    80.4060 h1         1 6W1       0.047700
     40 H7          -8.5470    53.5330    83.8840 ha         1 6W1       0.139000
     41 H8          -4.6140    57.3780    84.3770 ha         1 6W1       0.135000
     42 H9          -5.0640    56.8290    86.8940 h4         1 6W1       0.149000
     43 H10         -4.7930    56.8520    82.0000 h1         1 6W1       0.059700
     44 H11         -5.2230    55.5870    80.8360 h1         1 6W1       0.059700
     45 H12         -6.2280    57.0390    80.9700 h1         1 6W1       0.059700
     46 H13        -11.1290    53.1960    77.3170 ha         1 6W1       0.117000
     47 H14         -6.8040    49.7830    83.0520 ha         1 6W1       0.124000
     48 H15         -5.5500    50.7040    84.9630 ha         1 6W1       0.122000
     49 H16         -3.7610    53.6260    82.3880 ha         1 6W1       0.122000
     50 H17         -5.0510    52.7360    80.4960 ha         1 6W1       0.124000
     51 H18         -2.2360    53.5930    84.1950 h1         1 6W1       0.037700
     52 H19         -3.6640    54.6340    84.3710 h1         1 6W1       0.037700
     53 H20         -3.5460    54.3910    86.8210 hc         1 6W1       0.074700
     54 H21         -2.3420    52.4380    87.4830 h1         1 6W1       0.042700
     55 H22         -1.1720    52.6350    86.1640 h1         1 6W1       0.042700
     56 H23         -0.1440    53.4650    88.1590 hn         1 6W1       0.411000
     57 H25          0.2790    54.8200    86.2550 h1         1 6W1       0.036200
     58 H26         -0.1130    55.9310    87.5790 h1         1 6W1       0.036200
     59 H27         -1.5530    55.8240    85.1870 hc         1 6W1       0.045200
     60 H28         -2.3070    56.3190    86.6950 hc         1 6W1       0.045200
@<TRIPOS>BOND
     1     1     2 1   
     2     1    20 1   
     3     1    34 1   
     4     2    10 2   
     5     2    11 1   
     6     3    25 1   
     7     3    28 1   
     8     4    20 ar  
     9     4    21 ar  
    10     4    35 1   
    11     5     6 ar  
    12     5    21 ar  
    13     5    36 1   
    14     6     7 ar  
    15     6    37 1   
    16     7     8 1   
    17     7    20 ar  
    18     8    22 1   
    19     8    38 1   
    20     8    39 1   
    21     9    22 1   
    22     9    23 ar  
    23     9    27 ar  
    24    11    12 2   
    25    11    18 1   
    26    12    13 1   
    27    12    40 1   
    28    13    14 2   
    29    13    17 1   
    30    14    15 1   
    31    14    18 1   
    32    15    16 2   
    33    15    41 1   
    34    16    17 1   
    35    16    42 1   
    36    18    19 1   
    37    19    43 1   
    38    19    44 1   
    39    19    45 1   
    40    21    46 1   
    41    23    24 ar  
    42    23    47 1   
    43    24    25 ar  
    44    24    48 1   
    45    25    26 ar  
    46    26    27 ar  
    47    26    49 1   
    48    27    50 1   
    49    28    29 1   
    50    28    51 1   
    51    28    52 1   
    52    29    30 1   
    53    29    33 1   
    54    29    53 1   
    55    30    31 1   
    56    30    54 1   
    57    30    55 1   
    58    31    32 1   
    59    31    56 1   
    60    32    33 1   
    61    32    57 1   
    62    32    58 1   
    63    33    59 1   
    64    33    60 1   
@<TRIPOS>SUBSTRUCTURE
     1 6W1         1 TEMP              0 ****  ****    0 ROOT
