@<TRIPOS>MOLECULE
6W2
   27    28     1     0     0
SMALL
abcg2


@<TRIPOS>ATOM
      1 O2          -0.5670    -3.1260     0.1810 o          1 6W2      -0.525000
      2 S           -0.6540    -1.8410    -0.4890 sy         1 6W2       1.194600
      3 O1          -0.9730    -1.7790    -1.8990 o          1 6W2      -0.525000
      4 N           -1.8600    -1.0480     0.3630 nu         1 6W2      -0.861000
      5 C7          -2.1880     0.2700     0.1530 cc         1 6W2       0.699300
      6 S1          -3.2190     1.1060     1.2680 ss         1 6W2      -0.065400
      7 C9          -3.0730     2.5130     0.2810 cc         1 6W2      -0.273000
      8 C8          -2.2750     2.2440    -0.7770 cd         1 6W2       0.314900
      9 N1          -1.7760     0.9710    -0.8480 nd         1 6W2      -0.701000
     10 C4           0.8080    -0.9230    -0.1840 ca         1 6W2      -0.351500
     11 C3           1.4590    -1.0760     1.0390 ca         1 6W2       0.038500
     12 C2           2.6060    -0.3580     1.2920 ca         1 6W2      -0.202500
     13 C5           1.3040    -0.0580    -1.1460 ca         1 6W2       0.038500
     14 C6           2.4620     0.6610    -0.8950 ca         1 6W2      -0.202500
     15 C1           3.1200     0.5160     0.3260 ca         1 6W2       0.203100
     16 O            4.2400     1.1630     0.6560 os         1 6W2      -0.335100
     17 C            4.8120     2.0670    -0.2750 c3         1 6W2       0.145900
     18 H           -2.1200    -1.4870     1.2370 hn         1 6W2       0.521000
     19 H9          -3.5790     3.4310     0.5330 h4         1 6W2       0.164000
     20 H8          -2.0210     2.9560    -1.5480 h4         1 6W2       0.044100
     21 H3           1.0810    -1.7510     1.7960 ha         1 6W2       0.139000
     22 H5           0.8020     0.0660    -2.0940 ha         1 6W2       0.139000
     23 H2           3.1190    -0.4700     2.2390 ha         1 6W2       0.128500
     24 H6           2.8340     1.3240    -1.6630 ha         1 6W2       0.128500
     25 HC1          5.7060     2.4650     0.1970 h1         1 6W2       0.047700
     26 HC2          5.0950     1.5660    -1.2030 h1         1 6W2       0.047700
     27 HC3          4.1350     2.8920    -0.5060 h1         1 6W2       0.047700
@<TRIPOS>BOND
     1     1     2 2   
     2     2     3 2   
     3     2     4 1   
     4     2    10 1   
     5     4     5 1   
     6     4    18 1   
     7     5     6 1   
     8     5     9 2   
     9     6     7 1   
    10     7     8 2   
    11     7    19 1   
    12     8     9 1   
    13     8    20 1   
    14    10    11 ar  
    15    10    13 ar  
    16    11    12 ar  
    17    11    21 1   
    18    12    15 ar  
    19    12    23 1   
    20    13    14 ar  
    21    13    22 1   
    22    14    15 ar  
    23    14    24 1   
    24    15    16 1   
    25    16    17 1   
    26    17    25 1   
    27    17    26 1   
    28    17    27 1   
@<TRIPOS>SUBSTRUCTURE
     1 6W2         1 TEMP              0 ****  ****    0 ROOT
