@<TRIPOS>MOLECULE
6W2
   27    28     1     0     0
SMALL
No Charge or Current Charge


@<TRIPOS>ATOM
      1 O2          -0.7940    -3.1820     0.4810 o          1 6W2      -0.525000
      2 S           -0.7360    -2.1070    -0.5090 sy         1 6W2       1.194600
      3 O1          -0.8540    -2.3540    -1.9470 o          1 6W2      -0.525000
      4 N           -2.0830    -1.2210    -0.1330 nu         1 6W2      -0.861000
      5 C7          -2.0090     0.1180    -0.0530 cc         1 6W2       0.699300
      6 S1          -2.0430     0.9950     1.4540 ss         1 6W2      -0.065400
      7 C9          -1.9610     2.4560     0.5120 cc         1 6W2      -0.273000
      8 C8          -1.9490     2.1790    -0.8360 cd         1 6W2       0.314900
      9 N1          -1.9920     0.8300    -1.1580 nd         1 6W2      -0.701000
     10 C4           0.6620    -1.0360    -0.1630 ca         1 6W2      -0.351500
     11 C3           1.2070    -0.9850     1.1350 ca         1 6W2       0.038500
     12 C2           2.2870    -0.1290     1.4030 ca         1 6W2      -0.202500
     13 C5           1.2030    -0.2320    -1.1860 ca         1 6W2       0.038500
     14 C6           2.2830     0.6230    -0.9080 ca         1 6W2      -0.202500
     15 C1           2.8290     0.6760     0.3910 ca         1 6W2       0.203100
     16 O            3.8870     1.4980     0.7210 os         1 6W2      -0.335100
     17 C            4.5130     2.3660    -0.2410 c3         1 6W2       0.145900
     18 H           -2.3480    -1.6320     0.7460 hn         1 6W2       0.521000
     19 H9          -1.9370     3.4200     1.0020 h4         1 6W2       0.164000
     20 H8          -1.9130     2.9170    -1.6290 h4         1 6W2       0.044100
     21 H3           0.7990    -1.5990     1.9380 ha         1 6W2       0.139000
     22 H5           0.7850    -0.2560    -2.1920 ha         1 6W2       0.139000
     23 H2           2.7060    -0.0870     2.4050 ha         1 6W2       0.128500
     24 H6           2.6790     1.2350    -1.7130 ha         1 6W2       0.128500
     25 HC1          5.3290     2.9280     0.2290 h1         1 6W2       0.047700
     26 HC2          4.9350     1.7870    -1.0720 h1         1 6W2       0.047700
     27 HC3          3.7910     3.0870    -0.6440 h1         1 6W2       0.047700
@<TRIPOS>BOND
     1     1     2 2   
     2     2     3 2   
     3     2     4 1   
     4     2    10 1   
     5     4     5 1   
     6     4    18 1   
     7     5     6 1   
     8     5     9 2   
     9     6     7 1   
    10     7     8 2   
    11     7    19 1   
    12     8     9 1   
    13     8    20 1   
    14    10    11 ar  
    15    10    13 ar  
    16    11    12 ar  
    17    11    21 1   
    18    12    15 ar  
    19    12    23 1   
    20    13    14 ar  
    21    13    22 1   
    22    14    15 ar  
    23    14    24 1   
    24    15    16 1   
    25    16    17 1   
    26    17    25 1   
    27    17    26 1   
    28    17    27 1   
@<TRIPOS>SUBSTRUCTURE
     1 6W2         1 TEMP              0 ****  ****    0 ROOT
