@<TRIPOS>MOLECULE
6W3
   63    67     1     0     0
SMALL
No Charge or Current Charge


@<TRIPOS>ATOM
      1 CAB         -5.6530    -1.4470     1.5450 c3         1 6W3       0.063900
      2 CAD         -3.2510     5.6210    -2.3410 ca         1 6W3      -0.114000
      3 CAE         -4.4180     5.1260    -1.7400 ca         1 6W3      -0.099000
      4 CAH         -4.4120     3.8640    -1.1230 ca         1 6W3      -0.097000
      5 CAI          0.9760     1.5220     1.3230 ca         1 6W3      -0.131500
      6 CAL          2.4530     0.1110    -0.6060 ca         1 6W3      -0.138000
      7 CAM         -3.2360    -3.5080     2.4160 cc         1 6W3      -0.117000
      8 CAN         -2.2030    -0.6050     0.7060 cc         1 6W3      -0.107000
      9 CAO          5.3590    -2.7360     1.1220 c6         1 6W3      -0.091900
     10 CAP          5.7070    -0.5610    -0.1110 c6         1 6W3      -0.091900
     11 CAQ          6.4620    -3.3730     0.2490 c6         1 6W3       0.168300
     12 NBG          7.4520    -2.3570    -0.2000 n3         1 6W3      -0.718600
     13 CAA          8.5780    -2.9600    -0.9450 c3         1 6W3       0.154100
     14 CAR          6.8030    -1.2510    -0.9540 c6         1 6W3       0.168300
     15 CBF          4.6520    -1.5900     0.3650 c6         1 6W3       0.177300
     16 CAZ          2.7210    -0.0910     0.7680 ca         1 6W3       0.118100
     17 CAJ          1.4530     1.0170    -1.0080 ca         1 6W3      -0.131500
     18 CAK          1.9740     0.6170     1.7240 ca         1 6W3      -0.138000
     19 CAY          0.7090     1.7260    -0.0400 ca         1 6W3       0.104100
     20 OAU         -0.3110     2.5930    -0.3710 os         1 6W3      -0.345100
     21 CBA         -2.0570     3.5860    -1.7100 ca         1 6W3      -0.096300
     22 CAG         -2.0760     4.8550    -2.3250 ca         1 6W3      -0.076000
     23 CBB         -3.2360     3.0790    -1.1050 ca         1 6W3      -0.043000
     24 NAT         -3.1760     1.8020    -0.4760 ns         1 6W3      -0.173000
     25 OAC         -5.3440     1.1980     0.0560 o          1 6W3      -0.586100
     26 CBC         -3.5530    -0.2640     0.6690 cd         1 6W3      -0.217600
     27 CBD         -2.1030    -1.7920     1.3460 cd         1 6W3      -0.221000
     28 SAW         -0.7370    -2.8130     1.7650 ss         1 6W3       0.185000
     29 CAF         -1.9240    -3.9520     2.5210 cd         1 6W3      -0.201000
     30 CBE         -3.2650    -2.2760     1.7390 cc         1 6W3      -0.117000
     31 NBH         -4.2030    -1.3410     1.3270 na         1 6W3       0.076000
     32 H1          -6.1690    -1.4490     0.5780 h1         1 6W3       0.060367
     33 H2          -5.8840    -2.3770     2.0780 h1         1 6W3       0.060367
     34 H3          -5.9970    -0.5950     2.1430 h1         1 6W3       0.060367
     35 H4          -3.2570     6.5990    -2.8170 ha         1 6W3       0.116000
     36 H5          -5.3280     5.7220    -1.7480 ha         1 6W3       0.117000
     37 H6          -5.3280     3.5190    -0.6560 ha         1 6W3       0.127000
     38 H7           0.3990     2.0600     2.0720 ha         1 6W3       0.121000
     39 H8           2.9970    -0.4270    -1.3760 ha         1 6W3       0.122500
     40 H9          -4.1150    -4.0220     2.7960 ha         1 6W3       0.138000
     41 H10         -1.3700    -0.0400     0.3020 ha         1 6W3       0.135000
     42 H12          5.8010    -2.3540     2.0520 hc         1 6W3       0.061200
     43 H13          6.1680    -0.0710     0.7570 hc         1 6W3       0.061200
     44 H14          5.2380     0.2320    -0.7060 hc         1 6W3       0.061200
     45 H15          6.9620    -4.1600     0.8320 h1         1 6W3       0.032700
     46 H16          5.9960    -3.8610    -0.6210 h1         1 6W3       0.032700
     47 H18          8.2270    -3.4300    -1.8740 h1         1 6W3       0.031033
     48 H19          9.3230    -2.1970    -1.2060 h1         1 6W3       0.031033
     49 H20          9.0780    -3.7270    -0.3390 h1         1 6W3       0.031033
     50 H21          6.3540    -1.6350    -1.8820 h1         1 6W3       0.032700
     51 H22          7.5500    -0.4980    -1.2440 h1         1 6W3       0.032700
     52 H23          4.1380    -2.0320    -0.5000 h1         1 6W3       0.039700
     53 H24          1.2680     1.1500    -2.0700 ha         1 6W3       0.121000
     54 H25          2.1690     0.4600     2.7820 ha         1 6W3       0.122500
     55 H28         -1.1760     5.2490    -2.7940 ha         1 6W3       0.132000
     56 H29         -2.2340     1.4470    -0.3810 hn         1 6W3       0.162000
     57 H31         -1.5680    -4.8630     2.9860 h4         1 6W3       0.148000
     58 CAX         -4.1410     0.9660     0.0670 c          1 6W3       0.642700
     59 CAS         -0.7640     2.7690    -1.7250 c3         1 6W3       0.214900
     60 OAV          3.6760    -0.9760     1.2350 os         1 6W3      -0.349100
     61 H11          4.6260    -3.5020     1.4090 hc         1 6W3       0.061200
     62 H26          0.0030     3.2760    -2.3240 h1         1 6W3       0.039700
     63 H27         -0.9720     1.7970    -2.1940 h1         1 6W3       0.039700
@<TRIPOS>BOND
     1     1    31 1   
     2     1    32 1   
     3     1    33 1   
     4     1    34 1   
     5     2     3 ar  
     6     2    22 ar  
     7     2    35 1   
     8     3     4 ar  
     9     3    36 1   
    10     4    23 ar  
    11     4    37 1   
    12     5    18 ar  
    13     5    19 ar  
    14     5    38 1   
    15     6    16 ar  
    16     6    17 ar  
    17     6    39 1   
    18     7    29 2   
    19     7    30 1   
    20     7    40 1   
    21     8    26 2   
    22     8    27 1   
    23     8    41 1   
    24     9    11 1   
    25     9    15 1   
    26     9    42 1   
    27     9    61 1   
    28    10    14 1   
    29    10    15 1   
    30    10    43 1   
    31    10    44 1   
    32    11    12 1   
    33    11    45 1   
    34    11    46 1   
    35    12    13 1   
    36    12    14 1   
    37    13    47 1   
    38    13    48 1   
    39    13    49 1   
    40    14    50 1   
    41    14    51 1   
    42    15    52 1   
    43    15    60 1   
    44    16    18 ar  
    45    16    60 1   
    46    17    19 ar  
    47    17    53 1   
    48    18    54 1   
    49    19    20 1   
    50    20    59 1   
    51    21    22 ar  
    52    21    23 ar  
    53    21    59 1   
    54    22    55 1   
    55    23    24 1   
    56    24    56 1   
    57    24    58 1   
    58    25    58 2   
    59    26    31 1   
    60    26    58 1   
    61    27    28 1   
    62    27    30 2   
    63    28    29 1   
    64    29    57 1   
    65    30    31 1   
    66    59    62 1   
    67    59    63 1   
@<TRIPOS>SUBSTRUCTURE
     1 6W3         1 TEMP              0 ****  ****    0 ROOT
