@<TRIPOS>MOLECULE
6W3
   63    67     1     0     0
SMALL
bcc


@<TRIPOS>ATOM
      1 CAB         -6.1200    -1.4630     1.0890 c3         1 6W3       0.034600
      2 CAD         -2.9850     5.5900    -0.2270 ca         1 6W3      -0.132000
      3 CAE         -4.2480     5.0350    -0.3700 ca         1 6W3      -0.117000
      4 CAH         -4.3850     3.6610    -0.4980 ca         1 6W3      -0.115000
      5 CAI          2.6920     3.3230     0.1330 ca         1 6W3      -0.149500
      6 CAL          2.9270     0.5640     0.1830 ca         1 6W3      -0.156000
      7 CAM         -4.8180    -4.2870     0.2660 cc         1 6W3      -0.135000
      8 CAN         -2.8590    -1.4370    -0.5930 cc         1 6W3      -0.125000
      9 CAO          6.9670    -0.7210     1.0170 c6         1 6W3      -0.091900
     10 CAP          5.5280    -1.1470    -0.9660 c6         1 6W3      -0.091900
     11 CAQ          7.3280    -2.1990     1.0150 c6         1 6W3       0.168300
     12 NBG          7.2630    -2.7560    -0.3220 n3         1 6W3      -0.718600
     13 CAA          7.7030    -4.1320    -0.3450 c3         1 6W3       0.154100
     14 CAR          5.9380    -2.6110    -0.8930 c6         1 6W3       0.168300
     15 CBF          5.5850    -0.5210     0.4210 c6         1 6W3       0.154100
     16 CAZ          4.0720     1.3450     0.2710 ca         1 6W3       0.118100
     17 CAJ          1.6700     1.1570     0.0680 ca         1 6W3      -0.149500
     18 CAK          3.9350     2.7360     0.2430 ca         1 6W3      -0.156000
     19 CAY          1.5420     2.5370     0.0440 ca         1 6W3       0.104100
     20 OAU          0.3670     3.2060    -0.0590 os         1 6W3      -0.321900
     21 CBA         -1.9860     3.3950    -0.3110 ca         1 6W3      -0.096300
     22 CAG         -1.8610     4.7750    -0.2020 ca         1 6W3      -0.094000
     23 CBB         -3.2620     2.8460    -0.4680 ca         1 6W3       0.049600
     24 NAT         -3.3870     1.4460    -0.6110 ns         1 6W3      -0.499100
     25 OAC         -4.7440     1.1030     1.1720 o          1 6W3      -0.586100
     26 CBC         -3.9260    -0.7850     0.0040 cd         1 6W3      -0.166900
     27 CBD         -3.1520    -2.8060    -0.5110 cd         1 6W3      -0.076100
     28 SAW         -2.5090    -4.3470    -0.9390 ss         1 6W3      -0.104800
     29 CAF         -3.9000    -5.1370    -0.2640 cd         1 6W3      -0.074100
     30 CBE         -4.3790    -2.9420     0.1250 cc         1 6W3      -0.066300
     31 NBH         -4.8460    -1.7090     0.4430 na         1 6W3       0.003900
     32 H1          -6.6790    -0.6960     0.5610 h1         1 6W3       0.060367
     33 H2          -6.6990    -2.3820     1.0620 h1         1 6W3       0.060367
     34 H3          -5.9890    -1.1610     2.1250 h1         1 6W3       0.060367
     35 H4          -2.8700     6.6620    -0.1360 ha         1 6W3       0.134000
     36 H5          -5.1240     5.6690    -0.3920 ha         1 6W3       0.135000
     37 H6          -5.3640     3.2220    -0.6360 ha         1 6W3       0.145000
     38 H7           2.6060     4.4020     0.1160 ha         1 6W3       0.139000
     39 H8           2.9730    -0.5160     0.1980 ha         1 6W3       0.140500
     40 H9          -5.7380    -4.6140     0.7280 ha         1 6W3       0.156000
     41 H10         -1.9700    -0.9820    -1.0010 ha         1 6W3       0.153000
     42 H12          7.7040    -0.1650     0.4310 hc         1 6W3       0.061200
     43 H13          6.2070    -0.6070    -1.6320 hc         1 6W3       0.061200
     44 H14          4.5260    -1.0760    -1.3950 hc         1 6W3       0.061200
     45 H15          8.3440    -2.3250     1.3970 h1         1 6W3       0.032700
     46 H16          6.6630    -2.7400     1.7120 h1         1 6W3       0.032700
     47 H18          7.0730    -4.8020     0.2610 h1         1 6W3       0.031033
     48 H19          7.6980    -4.5090    -1.3690 h1         1 6W3       0.031033
     49 H20          8.7240    -4.2050     0.0330 h1         1 6W3       0.031033
     50 H21          5.1830    -3.1740    -0.3160 h1         1 6W3       0.032700
     51 H22          5.9410    -3.0360    -1.8990 h1         1 6W3       0.032700
     52 H23          4.8540    -1.0160     1.0770 h1         1 6W3       0.039700
     53 H24          0.8110     0.5020    -0.0020 ha         1 6W3       0.139000
     54 H25          4.8180     3.3590     0.3120 ha         1 6W3       0.140500
     55 H28         -0.8850     5.2250    -0.0850 ha         1 6W3       0.150000
     56 H29         -2.9380     1.0130    -1.4040 hn         1 6W3       0.328500
     57 H31         -3.9590    -6.2140    -0.2980 h4         1 6W3       0.166000
     58 CAX         -4.0770     0.6570     0.2540 c          1 6W3       0.709700
     59 CAS         -0.8080     2.4620    -0.2450 c3         1 6W3       0.191700
     60 OAV          5.3340     0.8780     0.3930 os         1 6W3      -0.325900
     61 H11          6.9990    -0.3420     2.0410 hc         1 6W3       0.061200
     62 H26         -0.7390     1.8700    -1.1680 h1         1 6W3       0.039700
     63 H27         -0.9600     1.7520     0.5780 h1         1 6W3       0.039700
@<TRIPOS>BOND
     1     1    31 1   
     2     1    32 1   
     3     1    33 1   
     4     1    34 1   
     5     2     3 ar  
     6     2    22 ar  
     7     2    35 1   
     8     3     4 ar  
     9     3    36 1   
    10     4    23 ar  
    11     4    37 1   
    12     5    18 ar  
    13     5    19 ar  
    14     5    38 1   
    15     6    16 ar  
    16     6    17 ar  
    17     6    39 1   
    18     7    29 2   
    19     7    30 1   
    20     7    40 1   
    21     8    26 2   
    22     8    27 1   
    23     8    41 1   
    24     9    11 1   
    25     9    15 1   
    26     9    42 1   
    27     9    61 1   
    28    10    14 1   
    29    10    15 1   
    30    10    43 1   
    31    10    44 1   
    32    11    12 1   
    33    11    45 1   
    34    11    46 1   
    35    12    13 1   
    36    12    14 1   
    37    13    47 1   
    38    13    48 1   
    39    13    49 1   
    40    14    50 1   
    41    14    51 1   
    42    15    52 1   
    43    15    60 1   
    44    16    18 ar  
    45    16    60 1   
    46    17    19 ar  
    47    17    53 1   
    48    18    54 1   
    49    19    20 1   
    50    20    59 1   
    51    21    22 ar  
    52    21    23 ar  
    53    21    59 1   
    54    22    55 1   
    55    23    24 1   
    56    24    56 1   
    57    24    58 1   
    58    25    58 2   
    59    26    31 1   
    60    26    58 1   
    61    27    28 1   
    62    27    30 2   
    63    28    29 1   
    64    29    57 1   
    65    30    31 1   
    66    59    62 1   
    67    59    63 1   
@<TRIPOS>SUBSTRUCTURE
     1 6W3         1 TEMP              0 ****  ****    0 ROOT
