@<TRIPOS>MOLECULE
6W4
   74    79     1     0     0
SMALL
bcc


@<TRIPOS>ATOM
      1 N1           1.6870     2.4630     1.2620 na         1 6W4       0.106400
      2 N3           2.2540     4.4840     1.4800 nc         1 6W4      -0.351000
      3 C4           1.7000     4.3560     0.2510 cc         1 6W4       0.302600
      4 C5           1.3270     3.0450     0.1020 cd         1 6W4      -0.242600
      5 C7           1.5620     5.4900    -0.6750 cx         1 6W4      -0.145000
      6 C15          1.5020     1.0930     1.6770 c5         1 6W4       0.038000
      7 C17          2.2740     0.0850     0.8280 c5         1 6W4       0.103000
      8 C21          0.2010    -0.9160     1.5470 c5         1 6W4       0.025700
      9 C26         -0.7930    -1.5090     0.5560 c          1 6W4       0.674100
     10 N2           2.2380     3.3430     2.0780 nd         1 6W4      -0.199800
     11 C9           2.4300     5.5830    -1.9040 cx         1 6W4      -0.125400
     12 C12          0.9710     5.2890    -2.0370 cx         1 6W4      -0.125400
     13 N20          1.5670    -1.1460     1.1210 n          1 6W4      -0.469800
     14 C23          0.0590     0.6130     1.5670 c5         1 6W4      -0.107400
     15 O27         -0.4830    -1.7360    -0.5990 o          1 6W4      -0.586100
     16 N28         -2.0250    -1.6770     1.0640 ns         1 6W4      -0.564900
     17 C30         -3.1980    -1.9210     0.2620 c3         1 6W4       0.105000
     18 C33         -4.1360    -0.7050     0.2620 c3         1 6W4       0.005900
     19 C35         -3.4170     0.5760    -0.1130 ca         1 6W4      -0.076800
     20 C36         -3.4530     1.6640     0.7550 ca         1 6W4      -0.120250
     21 C38         -2.8120     2.8560     0.4390 ca         1 6W4      -0.129750
     22 C40         -2.1200     2.9750    -0.7570 ca         1 6W4      -0.129000
     23 C42         -2.0730     1.8940    -1.6290 ca         1 6W4      -0.129750
     24 C44         -2.7160     0.7060    -1.3100 ca         1 6W4      -0.120250
     25 C46         -5.3630    -0.9300    -0.5970 ca         1 6W4      -0.076800
     26 C47         -5.2880    -1.4870    -1.8720 ca         1 6W4      -0.120250
     27 C49         -6.4300    -1.6530    -2.6440 ca         1 6W4      -0.129750
     28 C51         -7.6690    -1.2650    -2.1540 ca         1 6W4      -0.129000
     29 C53         -7.7580    -0.7110    -0.8840 ca         1 6W4      -0.129750
     30 C55         -6.6130    -0.5470    -0.1160 ca         1 6W4      -0.120250
     31 C57          2.0530    -2.4020     1.1270 c          1 6W4       0.699700
     32 O58          1.3880    -3.3340     1.5610 o          1 6W4      -0.589100
     33 C59          3.4270    -2.6270     0.5980 ca         1 6W4      -0.146600
     34 C60          4.2850    -3.4700     1.3020 ca         1 6W4      -0.092500
     35 C62          5.5500    -3.7520     0.8140 ca         1 6W4      -0.127000
     36 C64          5.9800    -3.2250    -0.4020 ca         1 6W4      -0.065300
     37 C65          5.1050    -2.4140    -1.1180 ca         1 6W4      -0.127000
     38 C67          3.8460    -2.1080    -0.6230 ca         1 6W4      -0.092500
     39 C69          7.3660    -3.5000    -0.9270 c3         1 6W4       0.194100
     40 N72          7.8240    -4.8350    -0.5900 n8         1 6W4      -0.889800
     41 H1           0.8420     2.5180    -0.7020 h4         1 6W4       0.191000
     42 H2           1.3390     6.4320    -0.1880 hc         1 6W4       0.098700
     43 H3           1.8430     1.0400     2.7110 h1         1 6W4       0.103700
     44 H4           2.2130     0.3490    -0.2320 h1         1 6W4       0.067700
     45 H5           3.3250     0.0250     1.1060 h1         1 6W4       0.067700
     46 H6           0.0380    -1.3300     2.5470 h1         1 6W4       0.080700
     47 H7           2.7870     6.5630    -2.1910 hc         1 6W4       0.072450
     48 H8           3.1300     4.7770    -2.0840 hc         1 6W4       0.072450
     49 H9           0.6820     4.2880    -2.3310 hc         1 6W4       0.072450
     50 H10          0.3200     6.0640    -2.4180 hc         1 6W4       0.072450
     51 H11         -0.5600     0.9590     2.3910 hc         1 6W4       0.076700
     52 H12         -0.3930     0.9730     0.6390 hc         1 6W4       0.076700
     53 H13         -2.1680    -1.4610     2.0390 hn         1 6W4       0.310500
     54 H14         -2.8650    -2.1710    -0.7420 h1         1 6W4       0.067700
     55 H15         -3.7390    -2.7870     0.6480 h1         1 6W4       0.067700
     56 H16         -4.4920    -0.5780     1.2900 hc         1 6W4       0.051700
     57 H17         -3.9890     1.5800     1.6930 ha         1 6W4       0.131500
     58 H18         -2.8490     3.6870     1.1310 ha         1 6W4       0.132750
     59 H19         -1.6210     3.9020    -1.0080 ha         1 6W4       0.134000
     60 H20         -1.5360     1.9740    -2.5660 ha         1 6W4       0.132750
     61 H21         -2.6630    -0.1200    -2.0080 ha         1 6W4       0.131500
     62 H22         -4.3350    -1.8010    -2.2800 ha         1 6W4       0.131500
     63 H23         -6.3490    -2.0920    -3.6310 ha         1 6W4       0.132750
     64 H24         -8.5590    -1.3980    -2.7550 ha         1 6W4       0.134000
     65 H25         -8.7190    -0.4100    -0.4880 ha         1 6W4       0.132750
     66 H26         -6.6920    -0.1180     0.8770 ha         1 6W4       0.131500
     67 H27          3.9670    -3.8990     2.2440 ha         1 6W4       0.142500
     68 H28          6.2080    -4.4010     1.3760 ha         1 6W4       0.142000
     69 H29          5.4040    -2.0170    -2.0810 ha         1 6W4       0.142000
     70 H30          3.1850    -1.4880    -1.2140 ha         1 6W4       0.142500
     71 H31          7.3840    -3.2770    -2.0020 h1         1 6W4       0.036700
     72 H32          8.0540    -2.7840    -0.4660 h1         1 6W4       0.036700
     73 H33          7.3220    -5.5170    -1.1460 hn         1 6W4       0.343800
     74 H34          8.7990    -4.9290    -0.8420 hn         1 6W4       0.343800
@<TRIPOS>BOND
     1     1     4 1   
     2     1     6 1   
     3     1    10 1   
     4     2     3 1   
     5     2    10 2   
     6     3     4 2   
     7     3     5 1   
     8     4    41 1   
     9     5    11 1   
    10     5    12 1   
    11     5    42 1   
    12     6     7 1   
    13     6    14 1   
    14     6    43 1   
    15     7    13 1   
    16     7    44 1   
    17     7    45 1   
    18     8     9 1   
    19     8    13 1   
    20     8    14 1   
    21     8    46 1   
    22     9    15 2   
    23     9    16 1   
    24    11    12 1   
    25    11    47 1   
    26    11    48 1   
    27    12    49 1   
    28    12    50 1   
    29    13    31 1   
    30    14    51 1   
    31    14    52 1   
    32    16    17 1   
    33    16    53 1   
    34    17    18 1   
    35    17    54 1   
    36    17    55 1   
    37    18    19 1   
    38    18    25 1   
    39    18    56 1   
    40    19    20 ar  
    41    19    24 ar  
    42    20    21 ar  
    43    20    57 1   
    44    21    22 ar  
    45    21    58 1   
    46    22    23 ar  
    47    22    59 1   
    48    23    24 ar  
    49    23    60 1   
    50    24    61 1   
    51    25    26 ar  
    52    25    30 ar  
    53    26    27 ar  
    54    26    62 1   
    55    27    28 ar  
    56    27    63 1   
    57    28    29 ar  
    58    28    64 1   
    59    29    30 ar  
    60    29    65 1   
    61    30    66 1   
    62    31    32 2   
    63    31    33 1   
    64    33    34 ar  
    65    33    38 ar  
    66    34    35 ar  
    67    34    67 1   
    68    35    36 ar  
    69    35    68 1   
    70    36    37 ar  
    71    36    39 1   
    72    37    38 ar  
    73    37    69 1   
    74    38    70 1   
    75    39    40 1   
    76    39    71 1   
    77    39    72 1   
    78    40    73 1   
    79    40    74 1   
@<TRIPOS>SUBSTRUCTURE
     1 6W4         1 TEMP              0 ****  ****    0 ROOT
