@<TRIPOS>MOLECULE
6W4
   74    79     1     0     0
SMALL
No Charge or Current Charge


@<TRIPOS>ATOM
      1 N1           1.4870     2.5150     1.4460 na         1 6W4       0.127800
      2 N3           2.0240     4.5760     1.7750 nc         1 6W4      -0.351000
      3 C4           1.6360     4.4320     0.4730 cc         1 6W4       0.237300
      4 C5           1.2940     3.1370     0.2350 cd         1 6W4      -0.210000
      5 C7           1.6210     5.5770    -0.4550 cx         1 6W4      -0.145000
      6 C15          1.2630     1.1120     1.8040 c5         1 6W4       0.067300
      7 C17          2.2380     0.1090     1.1290 c5         1 6W4       0.103000
      8 C21          0.0760    -0.9830     1.6210 c5         1 6W4       0.025700
      9 C26         -0.9680    -1.7540     0.7530 c          1 6W4       0.607100
     10 N2           1.9360     3.4160     2.3750 nd         1 6W4      -0.199800
     11 C9           2.9100     6.0150    -1.1130 cx         1 6W4      -0.125400
     12 C12          1.8290     5.3570    -1.9390 cx         1 6W4      -0.125400
     13 N20          1.4950    -1.1740     1.2130 n          1 6W4      -0.402800
     14 C23         -0.1050     0.5400     1.3530 c5         1 6W4      -0.107400
     15 O27         -0.7670    -2.3630    -0.2900 o          1 6W4      -0.586100
     16 N28         -2.2140    -1.6320     1.3360 ns         1 6W4      -0.497900
     17 C30         -3.4780    -1.9370     0.6540 c3         1 6W4       0.105000
     18 C33         -4.2540    -0.6390     0.2990 c3         1 6W4       0.005900
     19 C35         -3.3930     0.3970    -0.4370 ca         1 6W4      -0.076800
     20 C36         -3.2910     1.7120     0.0650 ca         1 6W4      -0.102250
     21 C38         -2.4930     2.6670    -0.5890 ca         1 6W4      -0.111750
     22 C40         -1.7920     2.3190    -1.7550 ca         1 6W4      -0.111000
     23 C42         -1.8900     1.0150    -2.2650 ca         1 6W4      -0.111750
     24 C44         -2.6870     0.0590    -1.6110 ca         1 6W4      -0.102250
     25 C46         -5.5630    -0.8990    -0.4560 ca         1 6W4      -0.076800
     26 C47         -5.6290    -1.7980    -1.5440 ca         1 6W4      -0.102250
     27 C49         -6.8420    -2.0100    -2.2210 ca         1 6W4      -0.111750
     28 C51         -8.0010    -1.3250    -1.8230 ca         1 6W4      -0.111000
     29 C53         -7.9450    -0.4230    -0.7490 ca         1 6W4      -0.111750
     30 C55         -6.7320    -0.2100    -0.0710 ca         1 6W4      -0.102250
     31 C57          2.1430    -2.4220     1.3540 c          1 6W4       0.632700
     32 O58          1.5800    -3.3500     1.9220 o          1 6W4      -0.589100
     33 C59          3.5120    -2.6120     0.7350 ca         1 6W4      -0.146600
     34 C60          4.4330    -3.4880     1.3490 ca         1 6W4      -0.074500
     35 C62          5.7070    -3.6940     0.7930 ca         1 6W4      -0.109000
     36 C64          6.0800    -3.0430    -0.3970 ca         1 6W4      -0.065300
     37 C65          5.1560    -2.1910    -1.0310 ca         1 6W4      -0.109000
     38 C67          3.8810    -1.9820    -0.4750 ca         1 6W4      -0.074500
     39 C69          7.4640    -3.2640    -0.9960 c3         1 6W4       0.194100
     40 N72          7.5090    -4.4770    -1.8340 n8         1 6W4      -1.000200
     41 H1           0.9420     2.6400    -0.6580 h4         1 6W4       0.173000
     42 H2           0.9210     6.3550    -0.1600 hc         1 6W4       0.098700
     43 H3           1.3510     1.0110     2.8940 h1         1 6W4       0.103700
     44 H4           2.4150     0.3910     0.0830 h1         1 6W4       0.067700
     45 H5           3.2050     0.0720     1.6480 h1         1 6W4       0.067700
     46 H6          -0.0680    -1.2370     2.6790 h1         1 6W4       0.080700
     47 H7           3.0730     7.0820    -1.2480 hc         1 6W4       0.072450
     48 H8           3.8100     5.4410    -0.9060 hc         1 6W4       0.072450
     49 H9           2.0140     4.3450    -2.2930 hc         1 6W4       0.072450
     50 H10          1.2650     5.9820    -2.6270 hc         1 6W4       0.072450
     51 H11         -0.9440     0.9720     1.9100 hc         1 6W4       0.076700
     52 H12         -0.2860     0.7350     0.2890 hc         1 6W4       0.076700
     53 H13         -2.2590    -1.1270     2.2120 hn         1 6W4       0.310500
     54 H14         -3.2690    -2.5170    -0.2530 h1         1 6W4       0.067700
     55 H15         -4.0950    -2.5620     1.3120 h1         1 6W4       0.067700
     56 H16         -4.5210    -0.2100     1.2720 hc         1 6W4       0.051700
     57 H17         -3.8280     1.9970     0.9660 ha         1 6W4       0.113500
     58 H18         -2.4180     3.6770    -0.1910 ha         1 6W4       0.114750
     59 H19         -1.1760     3.0590    -2.2610 ha         1 6W4       0.116000
     60 H20         -1.3470     0.7430    -3.1680 ha         1 6W4       0.114750
     61 H21         -2.7480    -0.9470    -2.0180 ha         1 6W4       0.113500
     62 H22         -4.7440    -2.3320    -1.8780 ha         1 6W4       0.113500
     63 H23         -6.8820    -2.7050    -3.0580 ha         1 6W4       0.114750
     64 H24         -8.9400    -1.4900    -2.3490 ha         1 6W4       0.116000
     65 H25         -8.8410     0.1120    -0.4410 ha         1 6W4       0.114750
     66 H26         -6.7040     0.4950     0.7560 ha         1 6W4       0.113500
     67 H27          4.1650    -4.0030     2.2700 ha         1 6W4       0.124500
     68 H28          6.4070    -4.3650     1.2870 ha         1 6W4       0.124000
     69 H29          5.4210    -1.6960    -1.9620 ha         1 6W4       0.124000
     70 H30          3.1750    -1.3530    -1.0110 ha         1 6W4       0.124500
     71 H31          7.7450    -2.3970    -1.6110 h1         1 6W4       0.036700
     72 H32          8.2050    -3.3610    -0.1900 h1         1 6W4       0.036700
     73 H33          6.8570    -4.3580    -2.6190 hn         1 6W4       0.399000
     74 H34          8.4290    -4.5340    -2.2890 hn         1 6W4       0.399000
@<TRIPOS>BOND
     1     1     4 1   
     2     1     6 1   
     3     1    10 1   
     4     2     3 1   
     5     2    10 2   
     6     3     4 2   
     7     3     5 1   
     8     4    41 1   
     9     5    11 1   
    10     5    12 1   
    11     5    42 1   
    12     6     7 1   
    13     6    14 1   
    14     6    43 1   
    15     7    13 1   
    16     7    44 1   
    17     7    45 1   
    18     8     9 1   
    19     8    13 1   
    20     8    14 1   
    21     8    46 1   
    22     9    15 2   
    23     9    16 1   
    24    11    12 1   
    25    11    47 1   
    26    11    48 1   
    27    12    49 1   
    28    12    50 1   
    29    13    31 1   
    30    14    51 1   
    31    14    52 1   
    32    16    17 1   
    33    16    53 1   
    34    17    18 1   
    35    17    54 1   
    36    17    55 1   
    37    18    19 1   
    38    18    25 1   
    39    18    56 1   
    40    19    20 ar  
    41    19    24 ar  
    42    20    21 ar  
    43    20    57 1   
    44    21    22 ar  
    45    21    58 1   
    46    22    23 ar  
    47    22    59 1   
    48    23    24 ar  
    49    23    60 1   
    50    24    61 1   
    51    25    26 ar  
    52    25    30 ar  
    53    26    27 ar  
    54    26    62 1   
    55    27    28 ar  
    56    27    63 1   
    57    28    29 ar  
    58    28    64 1   
    59    29    30 ar  
    60    29    65 1   
    61    30    66 1   
    62    31    32 2   
    63    31    33 1   
    64    33    34 ar  
    65    33    38 ar  
    66    34    35 ar  
    67    34    67 1   
    68    35    36 ar  
    69    35    68 1   
    70    36    37 ar  
    71    36    39 1   
    72    37    38 ar  
    73    37    69 1   
    74    38    70 1   
    75    39    40 1   
    76    39    71 1   
    77    39    72 1   
    78    40    73 1   
    79    40    74 1   
@<TRIPOS>SUBSTRUCTURE
     1 6W4         1 TEMP              0 ****  ****    0 ROOT
