@<TRIPOS>MOLECULE
6W6
   19    20     1     0     0
SMALL
bcc


@<TRIPOS>ATOM
      1 O01          0.2100     0.0340     2.2900 o          1 6W6      -0.797800
      2 C02          1.3350     0.0580     1.7700 c          1 6W6       0.942200
      3 O03          2.4500     0.1040     2.3240 o          1 6W6      -0.797800
      4 C04          1.3890     0.0260     0.2630 cc         1 6W6      -0.048700
      5 C05          0.3960    -0.0090    -0.6750 cd         1 6W6      -0.101200
      6 N06         -0.9770    -0.0080    -0.3570 na         1 6W6       0.085800
      7 C07         -1.7650    -1.1090    -0.1730 cc         1 6W6       0.025100
      8 CL1         -1.1350    -2.6730    -0.4100 cl         1 6W6      -0.073900
      9 C09         -3.0210    -0.7200     0.1920 cd         1 6W6      -0.197000
     10 C10         -3.0060     0.6980     0.2500 cd         1 6W6      -0.197000
     11 C11         -1.7420     1.0890    -0.0810 cc         1 6W6       0.025100
     12 CL2         -1.0810     2.6550    -0.1890 cl         1 6W6      -0.073900
     13 C13          0.8650    -0.0390    -2.0140 cd         1 6W6      -0.136000
     14 C14          2.2250    -0.0250    -2.0690 cc         1 6W6      -0.194100
     15 S15          2.9200     0.0260    -0.5040 ss         1 6W6      -0.029800
     16 H091        -3.8570    -1.3710     0.3920 ha         1 6W6       0.143000
     17 H101        -3.8280     1.3470     0.5030 ha         1 6W6       0.143000
     18 H131         0.2170    -0.0690    -2.8780 ha         1 6W6       0.136000
     19 H141         2.8480    -0.0420    -2.9500 h4         1 6W6       0.145000
@<TRIPOS>BOND
     1     1     2 1   
     2     2     3 1   
     3     2     4 1   
     4     4     5 2   
     5     4    15 1   
     6     5     6 1   
     7     5    13 1   
     8     6     7 1   
     9     6    11 1   
    10     7     8 1   
    11     7     9 2   
    12     9    10 1   
    13     9    16 1   
    14    10    11 2   
    15    10    17 1   
    16    11    12 1   
    17    13    14 2   
    18    13    18 1   
    19    14    15 1   
    20    14    19 1   
@<TRIPOS>SUBSTRUCTURE
     1 6W6         1 TEMP              0 ****  ****    0 ROOT
