@<TRIPOS>MOLECULE
6W6
   19    20     1     0     0
SMALL
No Charge or Current Charge


@<TRIPOS>ATOM
      1 O01          0.3460     0.1720     2.3640 o          1 6W6      -0.692500
      2 C02          1.3760     0.4080     1.7510 c          1 6W6       0.731600
      3 O03          2.4130     0.7090     2.3230 o          1 6W6      -0.692500
      4 C04          1.4210     0.2570     0.2690 cc         1 6W6      -0.193600
      5 C05          0.4080    -0.0510    -0.6260 cd         1 6W6      -0.101200
      6 N06         -0.9270    -0.0750    -0.2080 na         1 6W6       0.187200
      7 C07         -1.8130    -1.1250    -0.4690 cc         1 6W6       0.066000
      8 Cl1         -1.4130    -2.6930    -1.1110 cl         1 6W6      -0.165500
      9 C09         -3.0480    -0.6870    -0.0690 cd         1 6W6      -0.179000
     10 C10         -2.9330     0.6500     0.3830 cd         1 6W6      -0.179000
     11 C11         -1.6230     1.0400     0.2750 cc         1 6W6       0.066000
     12 Cl2         -0.9820     2.6350     0.5630 cl         1 6W6      -0.165500
     13 C13          0.8320    -0.3490    -1.9470 cd         1 6W6      -0.118000
     14 C14          2.1900    -0.2300    -2.0970 cc         1 6W6      -0.321000
     15 S15          2.9530     0.3190    -0.5980 ss         1 6W6       0.260000
     16 H091        -3.9650    -1.2660    -0.1170 ha         1 6W6       0.125000
     17 H101        -3.7480     1.2780     0.7260 ha         1 6W6       0.125000
     18 H131         0.1600    -0.6310    -2.7520 ha         1 6W6       0.118000
     19 H141         2.7980    -0.3880    -2.9780 h4         1 6W6       0.127000
@<TRIPOS>BOND
     1     1     2 1   
     2     2     3 1   
     3     2     4 1   
     4     4     5 2   
     5     4    15 1   
     6     5     6 1   
     7     5    13 1   
     8     6     7 1   
     9     6    11 1   
    10     7     8 1   
    11     7     9 2   
    12     9    10 1   
    13     9    16 1   
    14    10    11 2   
    15    10    17 1   
    16    11    12 1   
    17    13    14 2   
    18    13    18 1   
    19    14    15 1   
    20    14    19 1   
@<TRIPOS>SUBSTRUCTURE
     1 6W6         1 TEMP              0 ****  ****    0 ROOT
