@<TRIPOS>MOLECULE
6W7
   33    35     1     0     0
SMALL
No Charge or Current Charge


@<TRIPOS>ATOM
      1 C4           2.1040     0.3810    -0.4380 cc         1 6W7       0.158400
      2 C5           2.9450    -0.0250     0.5700 cd         1 6W7       0.157500
      3 C6           4.1530    -0.8320     0.2230 c          1 6W7       0.527500
      4 C8           1.3540     1.0910     1.5150 cc         1 6W7       0.429400
      5 N1           4.2540    -1.0640    -1.1210 ns         1 6W7      -0.425400
      6 N3           2.2740     0.1080    -1.7820 nc         1 6W7      -0.544100
      7 OAC         -4.2130    -2.5010     1.2130 o          1 6W7      -0.923500
      8 PAU         -3.1310    -1.7760     0.4830 p5         1 6W7       1.274500
      9 OAD         -1.8940    -2.6120     0.4620 o          1 6W7      -0.923500
     10 OAB         -3.5760    -1.4920    -0.9140 o          1 6W7      -0.923500
     11 CAI         -2.7860    -0.1440     1.3750 c3         1 6W7      -0.155400
     12 CAR         -1.4350     1.0570    -0.3670 c5         1 6W7       0.189300
     13 CAG         -2.4430     2.2480    -0.6080 c5         1 6W7       0.118800
     14 NAL         -1.6160     3.4690    -0.8060 n7         1 6W7      -0.858400
     15 CAH         -0.3760     3.1840    -0.0590 c5         1 6W7       0.128800
     16 CAS         -0.0390     1.7440    -0.5250 c5         1 6W7       0.049300
     17 N9           1.0950     1.0980     0.1550 na         1 6W7      -0.115500
     18 C2           3.3600    -0.6150    -2.0640 cd         1 6W7       0.480800
     19 O6           4.9860    -1.2580     1.0150 o          1 6W7      -0.604000
     20 N7           2.4720     0.4290     1.8000 nd         1 6W7      -0.648000
     21 H1           0.7080     1.5870     2.2290 h5         1 6W7       0.038100
     22 H2           5.0540    -1.6060    -1.4170 hn         1 6W7       0.292500
     23 H5          -3.6680     0.4910     1.2270 h1         1 6W7       0.009700
     24 H6          -2.7470    -0.3900     2.4430 h1         1 6W7       0.009700
     25 H7          -1.5640     0.2310    -1.0790 h1         1 6W7       0.094700
     26 H8          -3.0820     2.0690    -1.4830 h1         1 6W7       0.023200
     27 H9          -3.1030     2.3910     0.2580 h1         1 6W7       0.023200
     28 H10         -2.0930     4.2960    -0.4250 hn         1 6W7       0.377000
     29 H12          0.4180     3.9010    -0.3080 h1         1 6W7       0.019700
     30 H13         -0.5560     3.2300     1.0240 h1         1 6W7       0.019700
     31 H14          0.1930     1.7920    -1.5970 h1         1 6W7       0.148700
     32 H15          3.6200    -0.9050    -3.0730 h5         1 6W7       0.017800
     33 OAN         -1.5700     0.5730     1.0070 os         1 6W7      -0.467000
@<TRIPOS>BOND
     1     1     2 2   
     2     1     6 1   
     3     1    17 1   
     4     2     3 1   
     5     2    20 1   
     6     3     5 1   
     7     3    19 2   
     8     4    17 1   
     9     4    20 2   
    10     4    21 1   
    11     5    18 1   
    12     5    22 1   
    13     6    18 2   
    14     7     8 1   
    15     8     9 1   
    16     8    10 1   
    17     8    11 1   
    18    11    23 1   
    19    11    24 1   
    20    11    33 1   
    21    12    13 1   
    22    12    16 1   
    23    12    25 1   
    24    12    33 1   
    25    13    14 1   
    26    13    26 1   
    27    13    27 1   
    28    14    15 1   
    29    14    28 1   
    30    15    16 1   
    31    15    29 1   
    32    15    30 1   
    33    16    17 1   
    34    16    31 1   
    35    18    32 1   
@<TRIPOS>SUBSTRUCTURE
     1 6W7         1 TEMP              0 ****  ****    0 ROOT
