@<TRIPOS>MOLECULE
6W7
   33    35     1     0     0
SMALL
abcg2


@<TRIPOS>ATOM
      1 C4           1.5600     0.2280    -0.3930 cc         1 6W7       0.158400
      2 C5           2.3710    -0.1060     0.6740 cd         1 6W7       0.157500
      3 C6           3.4070    -1.0650     0.4940 c          1 6W7       0.527500
      4 C8           0.9420     1.2490     1.4190 cc         1 6W7       0.429400
      5 N1           3.4400    -1.4900    -0.8350 ns         1 6W7      -0.425400
      6 N3           1.6750    -0.1930    -1.6670 nc         1 6W7      -0.544100
      7 OAC         -2.3570    -3.0280     0.0100 o          1 6W7      -0.923500
      8 PAU         -1.4520    -1.7870    -0.1020 p5         1 6W7       1.274500
      9 OAD         -0.0570    -1.9920     0.4900 o          1 6W7      -0.923500
     10 OAB         -1.4850    -1.1410    -1.4930 o          1 6W7      -0.923500
     11 CAI         -2.3560    -0.6030     1.0300 c3         1 6W7      -0.155400
     12 CAR         -1.8320     1.5210     0.0760 c5         1 6W7       0.189300
     13 CAG         -2.2310     2.9540     0.4230 c5         1 6W7       0.118800
     14 NAL         -1.6580     3.7040    -0.6780 n7         1 6W7      -0.858400
     15 CAH         -0.2910     3.2240    -0.7800 c5         1 6W7       0.128800
     16 CAS         -0.4450     1.7020    -0.6290 c5         1 6W7       0.049300
     17 N9           0.6520     1.1070     0.0950 na         1 6W7      -0.115500
     18 C2           2.6200    -1.0540    -1.8220 cd         1 6W7       0.480800
     19 O6           4.1950    -1.5080     1.3200 o          1 6W7      -0.604000
     20 N7           1.9700     0.5470     1.8030 nd         1 6W7      -0.648000
     21 H1           0.3780     1.9100     2.0580 h5         1 6W7       0.038100
     22 H2           4.1460    -2.1700    -1.0800 hn         1 6W7       0.292500
     23 H5          -3.4020    -0.5220     0.6950 h1         1 6W7       0.009700
     24 H6          -2.3930    -1.0240     2.0410 h1         1 6W7       0.009700
     25 H7          -2.5170     1.1270    -0.6810 h1         1 6W7       0.094700
     26 H8          -3.3130     3.0870     0.4780 h1         1 6W7       0.023200
     27 H9          -1.8070     3.2240     1.4050 h1         1 6W7       0.023200
     28 H10         -1.6940     4.7020    -0.5230 hn         1 6W7       0.377000
     29 H12          0.1620     3.5050    -1.7320 h1         1 6W7       0.019700
     30 H13          0.3580     3.6090     0.0210 h1         1 6W7       0.019700
     31 H14         -0.4750     1.1960    -1.5890 h1         1 6W7       0.148700
     32 H15          2.8160    -1.4760    -2.8000 h5         1 6W7       0.017800
     33 OAN         -1.8270     0.7130     1.2050 os         1 6W7      -0.467000
@<TRIPOS>BOND
     1     1     2 2   
     2     1     6 1   
     3     1    17 1   
     4     2     3 1   
     5     2    20 1   
     6     3     5 1   
     7     3    19 2   
     8     4    17 1   
     9     4    20 2   
    10     4    21 1   
    11     5    18 1   
    12     5    22 1   
    13     6    18 2   
    14     7     8 1   
    15     8     9 1   
    16     8    10 1   
    17     8    11 1   
    18    11    23 1   
    19    11    24 1   
    20    11    33 1   
    21    12    13 1   
    22    12    16 1   
    23    12    25 1   
    24    12    33 1   
    25    13    14 1   
    26    13    26 1   
    27    13    27 1   
    28    14    15 1   
    29    14    28 1   
    30    15    16 1   
    31    15    29 1   
    32    15    30 1   
    33    16    17 1   
    34    16    31 1   
    35    18    32 1   
@<TRIPOS>SUBSTRUCTURE
     1 6W7         1 TEMP              0 ****  ****    0 ROOT
