@<TRIPOS>MOLECULE
6W8
   35    37     1     0     0
SMALL
bcc


@<TRIPOS>ATOM
      1 C4           1.4910     0.2410    -0.2550 cc         1 6W8       0.198800
      2 C5           2.3050     0.2000     0.8620 cd         1 6W8       0.180800
      3 C6           3.2910    -0.8140     0.9520 c          1 6W8       0.687000
      4 C8           0.9090     1.7400     1.2130 cc         1 6W8       0.424400
      5 N1           3.2960    -1.6020    -0.2040 ns         1 6W8      -0.507400
      6 N3           1.5820    -0.5000    -1.3670 nc         1 6W8      -0.633100
      7 OAD         -2.4850    -2.7980     0.9820 o          1 6W8      -0.924500
      8 PAV         -1.5920    -1.6430     0.4900 p5         1 6W8       1.121700
      9 OAE         -0.1580    -1.7140     1.0160 o          1 6W8      -0.924500
     10 OAC         -1.7350    -1.3750    -1.0130 o          1 6W8      -0.924500
     11 CAI         -2.4120    -0.1950     1.3460 c3         1 6W8      -0.022800
     12 CAS         -1.8780     1.6140    -0.1200 c5         1 6W8       0.133100
     13 CAG         -2.2820     3.0930    -0.1410 c5         1 6W8       0.107800
     14 NAL         -1.6990     3.6560    -1.3470 n7         1 6W8      -0.801200
     15 CAH         -0.3800     3.0430    -1.4290 c5         1 6W8       0.117800
     16 CAT         -0.5040     1.6090    -0.8660 c5         1 6W8      -0.008000
     17 N9           0.6060     1.2400    -0.0250 na         1 6W8      -0.148900
     18 C2           2.4850    -1.4320    -1.2900 cd         1 6W8       0.704800
     19 O6           4.0700    -1.0560     1.8670 o          1 6W8      -0.682500
     20 N7           1.9230     1.1520     1.7720 nd         1 6W8      -0.644000
     21 H1           0.3600     2.5630     1.6410 h5         1 6W8       0.039100
     22 H2           3.9560    -2.3680    -0.2110 hn         1 6W8       0.291500
     23 H3           2.1750    -2.0780    -3.1620 hn         1 6W8       0.405800
     24 H4           3.5330    -2.7690    -2.4260 hn         1 6W8       0.405800
     25 H7          -3.4750    -0.1690     1.0570 h1         1 6W8       0.009200
     26 H8          -2.3970    -0.3610     2.4290 h1         1 6W8       0.009200
     27 H9          -2.5730     1.0430    -0.7440 h1         1 6W8       0.085700
     28 H10         -3.3630     3.2360    -0.1240 h1         1 6W8       0.041200
     29 H11         -1.8690     3.6040     0.7370 h1         1 6W8       0.041200
     30 H12         -2.2500     3.3610    -2.1450 hn         1 6W8       0.333800
     31 H14         -0.0040     3.0640    -2.4510 h1         1 6W8       0.036700
     32 H15          0.3210     3.6170    -0.8140 h1         1 6W8       0.036700
     33 H16         -0.5370     0.8630    -1.6550 h1         1 6W8       0.138700
     34 N2           2.6410    -2.3180    -2.3030 nv         1 6W8      -0.917800
     35 OAN         -1.8560     1.1090     1.1750 os         1 6W8      -0.410600
@<TRIPOS>BOND
     1     1     2 2   
     2     1     6 1   
     3     1    17 1   
     4     2     3 1   
     5     2    20 1   
     6     3     5 1   
     7     3    19 2   
     8     4    17 1   
     9     4    20 2   
    10     4    21 1   
    11     5    18 1   
    12     5    22 1   
    13     6    18 2   
    14     7     8 1   
    15     8     9 1   
    16     8    10 1   
    17     8    11 1   
    18    11    25 1   
    19    11    26 1   
    20    11    35 1   
    21    12    13 1   
    22    12    16 1   
    23    12    27 1   
    24    12    35 1   
    25    13    14 1   
    26    13    28 1   
    27    13    29 1   
    28    14    15 1   
    29    14    30 1   
    30    15    16 1   
    31    15    31 1   
    32    15    32 1   
    33    16    17 1   
    34    16    33 1   
    35    18    34 1   
    36    23    34 1   
    37    24    34 1   
@<TRIPOS>SUBSTRUCTURE
     1 6W8         1 TEMP              0 ****  ****    0 ROOT
