@<TRIPOS>MOLECULE
6W8
   35    37     1     0     0
SMALL
No Charge or Current Charge


@<TRIPOS>ATOM
      1 C4           1.9370     0.2860    -0.3340 cc         1 6W8       0.213400
      2 C5           2.7940     0.1670     0.7340 cd         1 6W8       0.115500
      3 C6           3.9980    -0.7080     0.5960 c          1 6W8       0.544500
      4 C8           1.2160     1.5010     1.3640 cc         1 6W8       0.424400
      5 N1           4.0760    -1.2900    -0.6360 ns         1 6W8      -0.440400
      6 N3           2.0920    -0.3410    -1.5560 nc         1 6W8      -0.633100
      7 OAD         -4.3780    -1.9210     2.2200 o          1 6W8      -0.924500
      8 PAV         -3.3130    -1.4570     1.2820 p5         1 6W8       1.279500
      9 OAE         -2.0870    -2.2880     1.4670 o          1 6W8      -0.924500
     10 OAC         -3.8020    -1.5760    -0.1240 o          1 6W8      -0.924500
     11 CAI         -2.9230     0.3550     1.6620 c3         1 6W8      -0.157400
     12 CAS         -1.6100     0.9970    -0.3780 c5         1 6W8       0.156300
     13 CAG         -2.6090     2.0950    -0.9110 c5         1 6W8       0.107800
     14 NAL         -1.7820     3.2000    -1.4770 n7         1 6W8      -0.856400
     15 CAH         -0.5160     3.1010    -0.7200 c5         1 6W8       0.117800
     16 CAT         -0.2100     1.5810    -0.7570 c5         1 6W8       0.021300
     17 N9           0.9350     1.1380     0.0570 na         1 6W8      -0.127500
     18 C2           3.1660    -1.0930    -1.6120 cd         1 6W8       0.704800
     19 O6           4.8430    -0.9090     1.4600 o          1 6W8      -0.607000
     20 N7           2.3400     0.9380     1.8020 nd         1 6W8      -0.644000
     21 H1           0.5810     2.1750     1.9270 h5         1 6W8       0.039100
     22 H2           4.8570    -1.9050    -0.7930 hn         1 6W8       0.291500
     23 H3           2.8000    -1.4030    -3.5300 hn         1 6W8       0.461000
     24 H4           4.3280    -1.9800    -2.9920 hn         1 6W8       0.461000
     25 H7          -3.8010     0.9390     1.3600 h1         1 6W8       0.009200
     26 H8          -2.8580     0.4220     2.7550 h1         1 6W8       0.009200
     27 H9          -1.7730     0.0080    -0.8270 h1         1 6W8       0.085700
     28 H10         -3.2890     1.6880    -1.6710 h1         1 6W8       0.041200
     29 H11         -3.2320     2.4870    -0.0950 h1         1 6W8       0.041200
     30 H12         -1.5840     2.9900    -2.4650 hn         1 6W8       0.389000
     31 H14          0.2820     3.6960    -1.1870 h1         1 6W8       0.036700
     32 H15         -0.6500     3.4620     0.3100 h1         1 6W8       0.036700
     33 H16         -0.0020     1.3060    -1.7990 h1         1 6W8       0.138700
     34 N2           3.3770    -1.7210    -2.7610 nv         1 6W8      -1.028200
     35 OAN         -1.7090     0.9140     1.0780 os         1 6W8      -0.457000
@<TRIPOS>BOND
     1     1     2 2   
     2     1     6 1   
     3     1    17 1   
     4     2     3 1   
     5     2    20 1   
     6     3     5 1   
     7     3    19 2   
     8     4    17 1   
     9     4    20 2   
    10     4    21 1   
    11     5    18 1   
    12     5    22 1   
    13     6    18 2   
    14     7     8 1   
    15     8     9 1   
    16     8    10 1   
    17     8    11 1   
    18    11    25 1   
    19    11    26 1   
    20    11    35 1   
    21    12    13 1   
    22    12    16 1   
    23    12    27 1   
    24    12    35 1   
    25    13    14 1   
    26    13    28 1   
    27    13    29 1   
    28    14    15 1   
    29    14    30 1   
    30    15    16 1   
    31    15    31 1   
    32    15    32 1   
    33    16    17 1   
    34    16    33 1   
    35    18    34 1   
    36    23    34 1   
    37    24    34 1   
@<TRIPOS>SUBSTRUCTURE
     1 6W8         1 TEMP              0 ****  ****    0 ROOT
