@<TRIPOS>MOLECULE
6WC
   40    41     1     0     0
SMALL
No Charge or Current Charge


@<TRIPOS>ATOM
      1 C4           3.3170    -0.5580    -0.3190 cc         1 6WC       0.075400
      2 C5           4.4310     0.2460    -0.3670 cd         1 6WC       0.109500
      3 C6           5.6120    -0.0920     0.4840 c          1 6WC       0.508500
      4 C8           2.9960     1.1010    -1.7440 cc         1 6WC       0.433400
      5 N1           5.4040    -1.2190     1.2320 ns         1 6WC      -0.442400
      6 N3           3.1840    -1.6870     0.4650 nc         1 6WC      -0.519100
      7 OAD         -2.1730     5.4160     0.9480 o          1 6WC      -0.946833
      8 PAY         -1.8720     4.1600     0.1990 p5         1 6WC       1.307000
      9 OAE         -3.1380     3.6110    -0.3740 o          1 6WC      -0.946833
     10 OAB         -0.9070     4.4630    -0.9000 o          1 6WC      -0.946833
     11 CAL         -1.1030     2.9110     1.3990 c3         1 6WC      -0.163900
     12 OAR         -1.0260     1.5250     0.9640 os         1 6WC      -0.415000
     13 CAJ         -0.1990     1.2800    -0.1890 c3         1 6WC       0.192100
     14 CAW         -0.0050    -0.2500    -0.3900 c3         1 6WC      -0.088700
     15 CAK         -1.3250    -0.9920    -0.7350 c3         1 6WC       0.192100
     16 OAS         -2.0680    -1.2470     0.4740 os         1 6WC      -0.415000
     17 CAM         -3.3730    -1.8640     0.2930 c3         1 6WC      -0.163900
     18 PAZ         -3.4030    -3.6420    -0.3600 p5         1 6WC       1.307000
     19 OAF         -4.7500    -4.2270    -0.0890 o          1 6WC      -0.946833
     20 OAG         -3.1540    -3.6440    -1.8320 o          1 6WC      -0.946833
     21 OAC         -2.3620    -4.4590     0.3320 o          1 6WC      -0.946833
     22 N9           2.4000    -0.0170    -1.1880 na         1 6WC      -0.106500
     23 C2           4.2510    -1.9690     1.2170 cd         1 6WC       0.452800
     24 O6           6.6620     0.5340     0.5380 o          1 6WC      -0.592000
     25 N7           4.2250     1.2890    -1.2660 nd         1 6WC      -0.658000
     26 H1           2.4900     1.7210    -2.4750 h5         1 6WC       0.073100
     27 H2           6.1690    -1.4990     1.8300 hn         1 6WC       0.294500
     28 H5          -0.1000     3.2780     1.6490 h1         1 6WC      -0.004800
     29 H6          -1.7000     2.9640     2.3190 h1         1 6WC      -0.004800
     30 H7          -0.6510     1.7060    -1.0940 h1         1 6WC       0.007450
     31 H8           0.7810     1.7510    -0.0430 h1         1 6WC       0.007450
     32 H9           0.3830    -0.6700     0.5450 hc         1 6WC       0.070700
     33 H10         -1.9130    -0.3930    -1.4440 h1         1 6WC       0.007450
     34 H11         -1.0780    -1.9440    -1.2210 h1         1 6WC       0.007450
     35 H12         -3.8930    -1.8870     1.2590 h1         1 6WC      -0.004800
     36 H13         -3.9850    -1.2530    -0.3840 h1         1 6WC      -0.004800
     37 H16          1.1390    -1.6180    -1.6340 h1         1 6WC       0.057700
     38 H17          0.7140    -0.1030    -2.4410 h1         1 6WC       0.057700
     39 H18          4.2860    -2.8240     1.8800 h5         1 6WC       0.036800
     40 CAN          1.0530    -0.5340    -1.4890 c3         1 6WC       0.065600
@<TRIPOS>BOND
     1     1     2 2   
     2     1     6 1   
     3     1    22 1   
     4     2     3 1   
     5     2    25 1   
     6     3     5 1   
     7     3    24 2   
     8     4    22 1   
     9     4    25 2   
    10     4    26 1   
    11     5    23 1   
    12     5    27 1   
    13     6    23 2   
    14     7     8 1   
    15     8     9 1   
    16     8    10 1   
    17     8    11 1   
    18    11    12 1   
    19    11    28 1   
    20    11    29 1   
    21    12    13 1   
    22    13    14 1   
    23    13    30 1   
    24    13    31 1   
    25    14    15 1   
    26    14    32 1   
    27    14    40 1   
    28    15    16 1   
    29    15    33 1   
    30    15    34 1   
    31    16    17 1   
    32    17    18 1   
    33    17    35 1   
    34    17    36 1   
    35    18    19 1   
    36    18    20 1   
    37    18    21 1   
    38    22    40 1   
    39    23    39 1   
    40    37    40 1   
    41    38    40 1   
@<TRIPOS>SUBSTRUCTURE
     1 6WC         1 TEMP              0 ****  ****    0 ROOT
