@<TRIPOS>MOLECULE
6WC
   40    41     1     0     0
SMALL
bcc


@<TRIPOS>ATOM
      1 C4           3.2270    -0.4990    -0.3610 cc         1 6WC       0.060800
      2 C5           4.3190     0.3490    -0.3460 cd         1 6WC       0.174800
      3 C6           5.4330     0.0400     0.4970 c          1 6WC       0.651000
      4 C8           2.9470     1.1790    -1.7130 cc         1 6WC       0.433400
      5 N1           5.1860    -1.1470     1.1940 ns         1 6WC      -0.509400
      6 N3           3.0590    -1.6380     0.3420 nc         1 6WC      -0.519100
      7 OAD         -1.5680     5.3040     1.3960 o          1 6WC      -0.946833
      8 PAY         -1.8410     4.0610     0.5340 p5         1 6WC       1.149200
      9 OAE         -3.2970     3.5840     0.5780 o          1 6WC      -0.946833
     10 OAB         -1.2630     4.1570    -0.8840 o          1 6WC      -0.946833
     11 CAL         -0.8510     2.7530     1.4250 c3         1 6WC      -0.029300
     12 OAR         -0.9410     1.4220     0.9360 os         1 6WC      -0.368600
     13 CAJ         -0.2780     1.2070    -0.2760 c3         1 6WC       0.168900
     14 CAW          0.0020    -0.2780    -0.4780 c3         1 6WC      -0.088700
     15 CAK         -1.2200    -1.0980    -0.8720 c3         1 6WC       0.168900
     16 OAS         -2.1840    -1.0620     0.1380 os         1 6WC      -0.368600
     17 CAM         -3.3730    -1.7750    -0.1810 c3         1 6WC      -0.029300
     18 PAZ         -3.3160    -3.6280     0.0440 p5         1 6WC       1.149200
     19 OAF         -4.7550    -4.0380    -0.3030 o          1 6WC      -0.946833
     20 OAG         -2.2710    -4.1620    -0.9470 o          1 6WC      -0.946833
     21 OAC         -2.9410    -3.8540     1.5130 o          1 6WC      -0.946833
     22 N9           2.3530     0.0450    -1.2450 na         1 6WC      -0.127900
     23 C2           4.0710    -1.9070     1.0990 cd         1 6WC       0.452800
     24 O6           6.4720     0.6590     0.6450 o          1 6WC      -0.667500
     25 N7           4.1250     1.3950    -1.2010 nd         1 6WC      -0.658000
     26 H1           2.4560     1.8050    -2.4440 h5         1 6WC       0.073100
     27 H2           5.9120    -1.4660     1.8230 hn         1 6WC       0.294500
     28 H5           0.2090     3.0590     1.4670 h1         1 6WC      -0.004800
     29 H6          -1.1900     2.7010     2.4660 h1         1 6WC      -0.004800
     30 H7          -0.8460     1.5940    -1.1330 h1         1 6WC       0.007450
     31 H8           0.6750     1.7600    -0.2760 h1         1 6WC       0.007450
     32 H9           0.4190    -0.6910     0.4470 hc         1 6WC       0.070700
     33 H10         -1.6290    -0.6950    -1.8170 h1         1 6WC       0.007450
     34 H11         -0.9140    -2.1290    -1.0850 h1         1 6WC       0.007450
     35 H12         -4.1460    -1.3650     0.4790 h1         1 6WC      -0.004800
     36 H13         -3.6930    -1.5280    -1.2070 h1         1 6WC      -0.004800
     37 H16          1.1450    -1.5250    -1.8300 h1         1 6WC       0.057700
     38 H17          0.7260     0.0400    -2.5030 h1         1 6WC       0.057700
     39 H18          4.0610    -2.7960     1.7160 h5         1 6WC       0.036800
     40 CAN          1.0400    -0.4670    -1.5890 c3         1 6WC       0.036300
@<TRIPOS>BOND
     1     1     2 2   
     2     1     6 1   
     3     1    22 1   
     4     2     3 1   
     5     2    25 1   
     6     3     5 1   
     7     3    24 2   
     8     4    22 1   
     9     4    25 2   
    10     4    26 1   
    11     5    23 1   
    12     5    27 1   
    13     6    23 2   
    14     7     8 1   
    15     8     9 1   
    16     8    10 1   
    17     8    11 1   
    18    11    12 1   
    19    11    28 1   
    20    11    29 1   
    21    12    13 1   
    22    13    14 1   
    23    13    30 1   
    24    13    31 1   
    25    14    15 1   
    26    14    32 1   
    27    14    40 1   
    28    15    16 1   
    29    15    33 1   
    30    15    34 1   
    31    16    17 1   
    32    17    18 1   
    33    17    35 1   
    34    17    36 1   
    35    18    19 1   
    36    18    20 1   
    37    18    21 1   
    38    22    40 1   
    39    23    39 1   
    40    37    40 1   
    41    38    40 1   
@<TRIPOS>SUBSTRUCTURE
     1 6WC         1 TEMP              0 ****  ****    0 ROOT
