@<TRIPOS>MOLECULE
6WD
   36    38     1     0     0
SMALL
abcg2


@<TRIPOS>ATOM
      1 C18          3.7810    -1.3140    -0.8670 ca         1 6WD       0.201000
      2 C17          3.4910    -0.0530    -1.3390 ca         1 6WD      -0.170000
      3 C16          2.5200     0.6900    -0.6830 ca         1 6WD      -0.048000
      4 C15          1.8270     0.2180     0.4310 ca         1 6WD      -0.142300
      5 C19          3.1350    -1.8420     0.2330 ca         1 6WD      -0.202000
      6 C20          2.1780    -1.0620     0.8530 ca         1 6WD       0.199000
      7 C12         -4.7420    -1.9850    -0.1620 ca         1 6WD       0.122900
      8 C1           1.1820     1.3470     2.5830 c3         1 6WD      -0.073100
      9 C2           0.7620     1.0700     1.1340 c6         1 6WD       0.241500
     10 C3          -0.5980     0.3570     1.1330 c6         1 6WD      -0.109400
     11 C4          -1.1010     0.0320    -0.2630 c6         1 6WD       0.153600
     12 S5          -1.2960     1.5670    -1.2350 ss         1 6WD      -0.405200
     13 C6          -0.1210     2.6420    -0.4390 c2         1 6WD       0.709100
     14 N7           0.6880     2.3670     0.4960 n2         1 6WD      -0.707900
     15 N8          -0.2100     3.9040    -0.9430 nv         1 6WD      -1.017200
     16 C9          -2.4230    -0.6740    -0.2440 ca         1 6WD      -0.190300
     17 C10         -2.5670    -1.9560    -0.7530 ca         1 6WD       0.124400
     18 N11         -3.7190    -2.6150    -0.7150 nb         1 6WD      -0.170500
     19 N13         -4.7250    -0.7630     0.3510 nb         1 6WD      -0.170500
     20 C14         -3.5720    -0.1140     0.3040 ca         1 6WD       0.124400
     21 F21          1.5690    -1.6110     1.9170 f          1 6WD      -0.177000
     22 F22          4.7130    -2.0540    -1.4810 f          1 6WD      -0.170000
     23 H1           4.0070     0.3490    -2.2000 ha         1 6WD       0.138000
     24 H2           2.3060     1.6820    -1.0520 ha         1 6WD       0.130000
     25 H3           3.3640    -2.8330     0.6020 ha         1 6WD       0.151000
     26 H5           2.1600     1.8280     2.6060 hc         1 6WD       0.049033
     27 H6           0.4620     2.0250     3.0440 hc         1 6WD       0.049033
     28 H7           1.2240     0.4440     3.1860 hc         1 6WD       0.049033
     29 H8          -0.5490    -0.5730     1.7000 hc         1 6WD       0.074700
     30 H9          -1.3190     0.9970     1.6500 hc         1 6WD       0.074700
     31 H10         -0.3780    -0.6010    -0.7830 h1         1 6WD       0.087700
     32 H11         -0.5610     4.0320    -1.8780 hn         1 6WD       0.477500
     33 H12          0.5520     4.5190    -0.7020 hn         1 6WD       0.477500
     34 H13         -1.7240    -2.4660    -1.2070 h4         1 6WD       0.031600
     35 H14         -3.5610     0.8920     0.7120 h4         1 6WD       0.031600
     36 H4          -5.6850    -2.5180    -0.1260 h5         1 6WD       0.053100
@<TRIPOS>BOND
     1     1     2 ar  
     2     1     5 ar  
     3     1    22 1   
     4     2     3 ar  
     5     2    23 1   
     6     3     4 ar  
     7     3    24 1   
     8     4     6 ar  
     9     4     9 1   
    10     5     6 ar  
    11     5    25 1   
    12     6    21 1   
    13     7    18 ar  
    14     7    19 ar  
    15     7    36 1   
    16     8     9 1   
    17     8    26 1   
    18     8    27 1   
    19     8    28 1   
    20     9    10 1   
    21     9    14 1   
    22    10    11 1   
    23    10    29 1   
    24    10    30 1   
    25    11    12 1   
    26    11    16 1   
    27    11    31 1   
    28    12    13 1   
    29    13    14 2   
    30    13    15 1   
    31    15    32 1   
    32    15    33 1   
    33    16    17 ar  
    34    16    20 ar  
    35    17    18 ar  
    36    17    34 1   
    37    19    20 ar  
    38    20    35 1   
@<TRIPOS>SUBSTRUCTURE
     1 6WD         1 TEMP              0 ****  ****    0 ROOT
