@<TRIPOS>MOLECULE
6WD
   36    38     1     0     0
SMALL
No Charge or Current Charge


@<TRIPOS>ATOM
      1 C18          3.7570    -1.4030    -0.8830 ca         1 6WD       0.201000
      2 C17          3.4720    -0.1240    -1.3690 ca         1 6WD      -0.170000
      3 C16          2.5210     0.6830    -0.7210 ca         1 6WD      -0.048000
      4 C15          1.8310     0.2210     0.4330 ca         1 6WD      -0.142300
      5 C19          3.0990    -1.8820     0.2510 ca         1 6WD      -0.202000
      6 C20          2.1490    -1.0830     0.9040 ca         1 6WD       0.199000
      7 C12         -4.7210    -2.1060    -0.2500 ca         1 6WD       0.122900
      8 C1           1.2330     1.4130     2.6050 c3         1 6WD      -0.073100
      9 C2           0.7610     1.1130     1.1500 c6         1 6WD       0.241500
     10 C3          -0.6350     0.4260     1.1960 c6         1 6WD      -0.109400
     11 C4          -1.1510     0.1390    -0.2230 c6         1 6WD       0.153600
     12 S5          -1.3780     1.7070    -1.1430 ss         1 6WD      -0.405200
     13 C6          -0.1480     2.7440    -0.3980 c2         1 6WD       0.709100
     14 N7           0.6740     2.4550     0.5300 n2         1 6WD      -0.707900
     15 N8          -0.1810     3.9630    -0.9610 nv         1 6WD      -1.017200
     16 C9          -2.4470    -0.6690    -0.2290 ca         1 6WD      -0.190300
     17 C10         -2.5220    -1.9160    -0.8790 ca         1 6WD       0.124400
     18 N11         -3.6600    -2.6400    -0.8910 nb         1 6WD      -0.170500
     19 N13         -4.7580    -0.9230     0.3990 nb         1 6WD      -0.170500
     20 C14         -3.6160    -0.2050     0.4070 ca         1 6WD       0.124400
     21 F21          1.5490    -1.6050     1.9950 f          1 6WD      -0.177000
     22 F22          4.6710    -2.1750    -1.5090 f          1 6WD      -0.170000
     23 H1           3.9900     0.2450    -2.2510 ha         1 6WD       0.138000
     24 H2           2.3380     1.6700    -1.1370 ha         1 6WD       0.130000
     25 H3           3.3240    -2.8760     0.6280 ha         1 6WD       0.151000
     26 H5           2.2390     1.8490     2.6120 hc         1 6WD       0.049033
     27 H6           0.5620     2.1230     3.1040 hc         1 6WD       0.049033
     28 H7           1.2600     0.5150     3.2300 hc         1 6WD       0.049033
     29 H8          -0.6020    -0.5080     1.7670 hc         1 6WD       0.074700
     30 H9          -1.3490     1.0710     1.7270 hc         1 6WD       0.074700
     31 H10         -0.3850    -0.4350    -0.7660 h1         1 6WD       0.087700
     32 H11         -0.5410     3.9490    -1.9060 hn         1 6WD       0.477500
     33 H12          0.6840     4.4710    -0.8340 hn         1 6WD       0.477500
     34 H13         -1.6640    -2.3440    -1.3950 h4         1 6WD       0.031600
     35 H14         -3.6440     0.7510     0.9270 h4         1 6WD       0.031600
     36 H4          -5.6410    -2.6870    -0.2590 h5         1 6WD       0.053100
@<TRIPOS>BOND
     1     1     2 ar  
     2     1     5 ar  
     3     1    22 1   
     4     2     3 ar  
     5     2    23 1   
     6     3     4 ar  
     7     3    24 1   
     8     4     6 ar  
     9     4     9 1   
    10     5     6 ar  
    11     5    25 1   
    12     6    21 1   
    13     7    18 ar  
    14     7    19 ar  
    15     7    36 1   
    16     8     9 1   
    17     8    26 1   
    18     8    27 1   
    19     8    28 1   
    20     9    10 1   
    21     9    14 1   
    22    10    11 1   
    23    10    29 1   
    24    10    30 1   
    25    11    12 1   
    26    11    16 1   
    27    11    31 1   
    28    12    13 1   
    29    13    14 2   
    30    13    15 1   
    31    15    32 1   
    32    15    33 1   
    33    16    17 ar  
    34    16    20 ar  
    35    17    18 ar  
    36    17    34 1   
    37    19    20 ar  
    38    20    35 1   
@<TRIPOS>SUBSTRUCTURE
     1 6WD         1 TEMP              0 ****  ****    0 ROOT
