@<TRIPOS>MOLECULE
6WE
   40    42     1     0     0
SMALL
No Charge or Current Charge


@<TRIPOS>ATOM
      1 N14          0.4750     3.8780     1.2150 nv         1 6WE      -1.020200
      2 C18         -3.6270     0.2230     1.0900 ca         1 6WE      -0.170000
      3 C17         -2.5550     0.9590     0.5590 ca         1 6WE      -0.047000
      4 C16         -1.8340     0.4920    -0.5740 ca         1 6WE      -0.140300
      5 C15         -0.9620     1.7470    -2.6120 c3         1 6WE      -0.071100
      6 C19         -4.0060    -0.9900     0.5060 ca         1 6WE       0.200000
      7 C20         -3.3200    -1.4710    -0.6110 ca         1 6WE      -0.203000
      8 C21         -2.2500    -0.7420    -1.1480 ca         1 6WE       0.197000
      9 C12          0.3470     2.7100     0.5650 c2         1 6WE       0.707100
     10 C2           3.5350    -0.7890    -0.1570 cc         1 6WE       0.304300
     11 C3           2.2000    -0.9610     0.2820 cc         1 6WE      -0.229300
     12 C4           2.1550    -2.2400     0.7330 cd         1 6WE       0.210300
     13 O5           3.3810    -2.8310     0.5880 os         1 6WE      -0.070700
     14 N6           4.2790    -1.8720     0.0010 nd         1 6WE      -0.365300
     15 C7           1.0190    -3.0330     1.3160 c3         1 6WE      -0.141400
     16 C8           1.0630     0.0350     0.2580 c6         1 6WE       0.192600
     17 C9           0.6880     0.4660    -1.1680 c6         1 6WE      -0.108400
     18 C10         -0.6260     1.3010    -1.1570 c6         1 6WE       0.237500
     19 N11         -0.4310     2.5800    -0.4350 n2         1 6WE      -0.707900
     20 S13          1.3930     1.4930     1.3140 ss         1 6WE      -0.416200
     21 F22         -1.6310    -1.2610    -2.2300 f          1 6WE      -0.177000
     22 F23         -5.0360    -1.6940     1.0200 f          1 6WE      -0.171000
     23 H1          -0.3200     4.4840     1.0610 hn         1 6WE       0.478000
     24 H2           0.7570     3.7700     2.1800 hn         1 6WE       0.478000
     25 H3          -4.1670     0.5940     1.9580 ha         1 6WE       0.138000
     26 H4          -2.3020     1.8960     1.0470 ha         1 6WE       0.131000
     27 H5          -1.0510     0.8990    -3.2990 hc         1 6WE       0.047700
     28 H6          -1.9090     2.2980    -2.6470 hc         1 6WE       0.047700
     29 H7          -0.1830     2.4030    -3.0190 hc         1 6WE       0.047700
     30 H8          -3.6180    -2.4120    -1.0650 ha         1 6WE       0.150000
     31 H9           3.7440     1.3640    -0.2460 hc         1 6WE       0.061367
     32 H10          5.1860     0.4710    -0.7280 hc         1 6WE       0.061367
     33 H11          3.8000     0.5470    -1.8230 hc         1 6WE       0.061367
     34 H12          0.1780    -3.0820     0.6160 hc         1 6WE       0.065367
     35 H13          1.3270    -4.0600     1.5450 hc         1 6WE       0.065367
     36 H14          0.6610    -2.5740     2.2450 hc         1 6WE       0.065367
     37 H15          0.1800    -0.4470     0.7030 h1         1 6WE       0.082700
     38 H16          1.4950     1.0650    -1.6070 hc         1 6WE       0.074200
     39 H17          0.5960    -0.4200    -1.8070 hc         1 6WE       0.074200
     40 C1           4.0900     0.4680    -0.7690 c3         1 6WE      -0.140400
@<TRIPOS>BOND
     1     1     9 1   
     2     1    23 1   
     3     1    24 1   
     4     2     3 ar  
     5     2     6 ar  
     6     2    25 1   
     7     3     4 ar  
     8     3    26 1   
     9     4     8 ar  
    10     4    18 1   
    11     5    18 1   
    12     5    27 1   
    13     5    28 1   
    14     5    29 1   
    15     6     7 ar  
    16     6    22 1   
    17     7     8 ar  
    18     7    30 1   
    19     8    21 1   
    20     9    19 2   
    21     9    20 1   
    22    10    11 1   
    23    10    14 2   
    24    10    40 1   
    25    11    12 2   
    26    11    16 1   
    27    12    13 1   
    28    12    15 1   
    29    13    14 1   
    30    15    34 1   
    31    15    35 1   
    32    15    36 1   
    33    16    17 1   
    34    16    20 1   
    35    16    37 1   
    36    17    18 1   
    37    17    38 1   
    38    17    39 1   
    39    18    19 1   
    40    31    40 1   
    41    32    40 1   
    42    33    40 1   
@<TRIPOS>SUBSTRUCTURE
     1 6WE         1 TEMP              0 ****  ****    0 ROOT
