@<TRIPOS>MOLECULE
6WE
   40    42     1     0     0
SMALL
abcg2


@<TRIPOS>ATOM
      1 N14          0.5670     3.7490     1.2110 nv         1 6WE      -1.020200
      2 C18         -3.6670     0.4260     1.0780 ca         1 6WE      -0.170000
      3 C17         -2.5680     1.0620     0.5180 ca         1 6WE      -0.047000
      4 C16         -1.8640     0.5440    -0.5680 ca         1 6WE      -0.140300
      5 C15         -0.9650     1.7030    -2.6060 c3         1 6WE      -0.071100
      6 C19         -4.0790    -0.7720     0.5350 ca         1 6WE       0.200000
      7 C20         -3.4320    -1.3380    -0.5440 ca         1 6WE      -0.203000
      8 C21         -2.3460    -0.6630    -1.0690 ca         1 6WE       0.197000
      9 C12          0.3160     2.5620     0.5920 c2         1 6WE       0.707100
     10 C2           3.5000    -0.6660    -0.1270 cc         1 6WE       0.304300
     11 C3           2.1630    -0.9950     0.2530 cc         1 6WE      -0.229300
     12 C4           2.2560    -2.2860     0.6640 cd         1 6WE       0.210300
     13 O5           3.5200    -2.6950     0.5440 os         1 6WE      -0.070700
     14 N6           4.2920    -1.6810     0.0540 nd         1 6WE      -0.365300
     15 C7           1.2670    -3.2590     1.1800 c3         1 6WE      -0.141400
     16 C8           0.9380    -0.1510     0.2200 c6         1 6WE       0.192600
     17 C9           0.5950     0.3830    -1.1590 c6         1 6WE      -0.108400
     18 C10         -0.6560     1.2770    -1.1660 c6         1 6WE       0.237500
     19 N11         -0.4190     2.5070    -0.4390 n2         1 6WE      -0.707900
     20 S13          1.1670     1.2290     1.4050 ss         1 6WE      -0.416200
     21 F22         -1.7440    -1.2420    -2.1220 f          1 6WE      -0.177000
     22 F23         -5.1320    -1.4100     1.0610 f          1 6WE      -0.171000
     23 H1          -0.0680     4.4990     0.9860 hn         1 6WE       0.478000
     24 H2           0.8820     3.7460     2.1670 hn         1 6WE       0.478000
     25 H3          -4.1890     0.8610     1.9190 ha         1 6WE       0.138000
     26 H4          -2.2610     2.0050     0.9440 ha         1 6WE       0.131000
     27 H5          -1.1660     0.8570    -3.2600 hc         1 6WE       0.047700
     28 H6          -1.8310     2.3640    -2.6230 hc         1 6WE       0.047700
     29 H7          -0.1150     2.2500    -3.0160 hc         1 6WE       0.047700
     30 H8          -3.7560    -2.2780    -0.9710 ha         1 6WE       0.150000
     31 H9           3.6590     1.4600    -0.0880 hc         1 6WE       0.061367
     32 H10          5.1150     0.6240    -0.6520 hc         1 6WE       0.061367
     33 H11          3.7050     0.7620    -1.7010 hc         1 6WE       0.061367
     34 H12          1.1330    -4.0890     0.4850 hc         1 6WE       0.065367
     35 H13          1.5810    -3.6720     2.1390 hc         1 6WE       0.065367
     36 H14          0.2990    -2.7830     1.3210 hc         1 6WE       0.065367
     37 H15          0.0980    -0.7420     0.5910 h1         1 6WE       0.082700
     38 H16          1.4260     0.9700    -1.5570 hc         1 6WE       0.074200
     39 H17          0.4710    -0.4690    -1.8280 hc         1 6WE       0.074200
     40 C1           4.0270     0.6150    -0.6690 c3         1 6WE      -0.140400
@<TRIPOS>BOND
     1     1     9 1   
     2     1    23 1   
     3     1    24 1   
     4     2     3 ar  
     5     2     6 ar  
     6     2    25 1   
     7     3     4 ar  
     8     3    26 1   
     9     4     8 ar  
    10     4    18 1   
    11     5    18 1   
    12     5    27 1   
    13     5    28 1   
    14     5    29 1   
    15     6     7 ar  
    16     6    22 1   
    17     7     8 ar  
    18     7    30 1   
    19     8    21 1   
    20     9    19 2   
    21     9    20 1   
    22    10    11 1   
    23    10    14 2   
    24    10    40 1   
    25    11    12 2   
    26    11    16 1   
    27    12    13 1   
    28    12    15 1   
    29    13    14 1   
    30    15    34 1   
    31    15    35 1   
    32    15    36 1   
    33    16    17 1   
    34    16    20 1   
    35    16    37 1   
    36    17    18 1   
    37    17    38 1   
    38    17    39 1   
    39    18    19 1   
    40    31    40 1   
    41    32    40 1   
    42    33    40 1   
@<TRIPOS>SUBSTRUCTURE
     1 6WE         1 TEMP              0 ****  ****    0 ROOT
