@<TRIPOS>MOLECULE
6WG
   29    30     1     0     0
SMALL
No Charge or Current Charge


@<TRIPOS>ATOM
      1 C4          -1.0420     0.3860    -0.1110 ca         1 6WG      -0.109300
      2 C7           0.4430     0.5970    -0.4430 c6         1 6WG       0.169000
      3 C6          -3.3940     0.5310    -0.7520 ca         1 6WG      -0.110500
      4 C9           2.5270     1.9250     0.2430 c6         1 6WG      -0.074400
      5 C8           1.0090     1.7640     0.4100 c6         1 6WG      -0.085400
      6 C1          -3.7700    -0.0140     0.4860 ca         1 6WG      -0.100000
      7 C2          -2.7860    -0.3610     1.4270 ca         1 6WG      -0.110500
      8 C3          -1.4270    -0.1620     1.1300 ca         1 6WG      -0.096500
      9 C5          -2.0340     0.7300    -1.0510 ca         1 6WG      -0.096500
     10 C10          3.2050     0.6110     0.6560 c6         1 6WG      -0.091400
     11 C11          2.7120    -0.5700    -0.2080 c6         1 6WG       0.087000
     12 N1           1.2290    -0.6770    -0.3670 n          1 6WG      -0.418800
     13 C12          0.6780    -1.8640    -0.8910 c          1 6WG       0.599900
     14 O1           1.3300    -2.8950    -1.0230 o          1 6WG      -0.613100
     15 H6           0.5030     0.9230    -1.4920 h1         1 6WG       0.046700
     16 H5          -4.1550     0.8000    -1.4820 ha         1 6WG       0.117000
     17 H10          2.7740     2.1730    -0.7990 hc         1 6WG       0.042700
     18 H9           2.8910     2.7520     0.8670 hc         1 6WG       0.042700
     19 H8           0.5020     2.6990     0.1350 hc         1 6WG       0.051200
     20 H7           0.7810     1.5940     1.4710 hc         1 6WG       0.051200
     21 H1          -4.8220    -0.1680     0.7170 ha         1 6WG       0.116000
     22 H2          -3.0770    -0.7840     2.3870 ha         1 6WG       0.117000
     23 H3          -0.6720    -0.4370     1.8640 ha         1 6WG       0.116500
     24 H4          -1.7550     1.1530    -2.0140 ha         1 6WG       0.116500
     25 H12          4.2960     0.7040     0.5690 hc         1 6WG       0.050200
     26 H11          2.9940     0.4030     1.7150 hc         1 6WG       0.050200
     27 H14          3.1530    -0.4760    -1.2100 h1         1 6WG       0.056200
     28 H13          3.1020    -1.5020     0.2260 h1         1 6WG       0.056200
     29 H15         -0.3880    -1.7800    -1.1760 h5         1 6WG       0.021200
@<TRIPOS>BOND
     1     1     2 1   
     2     1     8 ar  
     3     1     9 ar  
     4     2     5 1   
     5     2    12 1   
     6     2    15 1   
     7     3     6 ar  
     8     3     9 ar  
     9     3    16 1   
    10     4     5 1   
    11     4    10 1   
    12     4    17 1   
    13     4    18 1   
    14     5    19 1   
    15     5    20 1   
    16     6     7 ar  
    17     6    21 1   
    18     7     8 ar  
    19     7    22 1   
    20     8    23 1   
    21     9    24 1   
    22    10    11 1   
    23    10    25 1   
    24    10    26 1   
    25    11    12 1   
    26    11    27 1   
    27    11    28 1   
    28    12    13 1   
    29    13    14 2   
    30    13    29 1   
@<TRIPOS>SUBSTRUCTURE
     1 6WG         1 TEMP              0 ****  ****    0 ROOT
