@<TRIPOS>MOLECULE
6WG
   29    30     1     0     0
SMALL
abcg2


@<TRIPOS>ATOM
      1 C4          -1.0340     0.3800    -0.1170 ca         1 6WG      -0.109300
      2 C7           0.4390     0.6130    -0.3510 c6         1 6WG       0.169000
      3 C6          -3.2990     0.3880    -0.9640 ca         1 6WG      -0.110500
      4 C9           2.4990     1.8570     0.4300 c6         1 6WG      -0.074400
      5 C8           1.0180     1.5970     0.6700 c6         1 6WG      -0.085400
      6 C1          -3.7800     0.0350     0.2890 ca         1 6WG      -0.100000
      7 C2          -2.8890    -0.1450     1.3410 ca         1 6WG      -0.110500
      8 C3          -1.5280     0.0280     1.1390 ca         1 6WG      -0.096500
      9 C5          -1.9340     0.5560    -1.1620 ca         1 6WG      -0.096500
     10 C10          3.2680     0.5440     0.4060 c6         1 6WG      -0.091400
     11 C11          2.6630    -0.4090    -0.6110 c6         1 6WG       0.087000
     12 N1           1.2420    -0.6170    -0.3680 n          1 6WG      -0.418800
     13 C12          0.7260    -1.8550    -0.3920 c          1 6WG       0.599900
     14 O1           1.3690    -2.8870    -0.5160 o          1 6WG      -0.613100
     15 H6           0.5430     1.0690    -1.3430 h1         1 6WG       0.046700
     16 H5          -3.9850     0.5340    -1.7880 ha         1 6WG       0.117000
     17 H10          2.6290     2.3750    -0.5250 hc         1 6WG       0.042700
     18 H9           2.8910     2.5210     1.2020 hc         1 6WG       0.042700
     19 H8           0.4480     2.5260     0.6070 hc         1 6WG       0.051200
     20 H7           0.8740     1.2040     1.6810 hc         1 6WG       0.051200
     21 H1          -4.8420    -0.0940     0.4480 ha         1 6WG       0.116000
     22 H2          -3.2560    -0.4210     2.3210 ha         1 6WG       0.117000
     23 H3          -0.8470    -0.1180     1.9690 ha         1 6WG       0.116500
     24 H4          -1.5660     0.8330    -2.1430 ha         1 6WG       0.116500
     25 H12          4.3160     0.7120     0.1510 hc         1 6WG       0.050200
     26 H11          3.2490     0.0790     1.3960 hc         1 6WG       0.050200
     27 H14          2.7920    -0.0020    -1.6210 h1         1 6WG       0.056200
     28 H13          3.1650    -1.3730    -0.5870 h1         1 6WG       0.056200
     29 H15         -0.3640    -1.8760    -0.2790 h5         1 6WG       0.021200
@<TRIPOS>BOND
     1     1     2 1   
     2     1     8 ar  
     3     1     9 ar  
     4     2     5 1   
     5     2    12 1   
     6     2    15 1   
     7     3     6 ar  
     8     3     9 ar  
     9     3    16 1   
    10     4     5 1   
    11     4    10 1   
    12     4    17 1   
    13     4    18 1   
    14     5    19 1   
    15     5    20 1   
    16     6     7 ar  
    17     6    21 1   
    18     7     8 ar  
    19     7    22 1   
    20     8    23 1   
    21     9    24 1   
    22    10    11 1   
    23    10    25 1   
    24    10    26 1   
    25    11    12 1   
    26    11    27 1   
    27    11    28 1   
    28    12    13 1   
    29    13    14 2   
    30    13    29 1   
@<TRIPOS>SUBSTRUCTURE
     1 6WG         1 TEMP              0 ****  ****    0 ROOT
