@<TRIPOS>MOLECULE
6WH
   78    83     1     0     0
SMALL
abcg2


@<TRIPOS>ATOM
      1 C43         -3.5180     4.1570     0.5300 c6         1 6WH      -0.084400
      2 C46         -4.2410     0.3550     0.4240 ca         1 6WH      -0.080300
      3 C47         -3.6780    -0.2700     1.5360 ca         1 6WH      -0.106500
      4 C49         -3.4450    -1.6390     1.5400 ca         1 6WH      -0.115500
      5 C51         -3.7760    -2.4110     0.4320 ca         1 6WH      -0.114000
      6 C53         -4.3380    -1.8000    -0.6790 ca         1 6WH      -0.115500
      7 C55         -4.5640    -0.4300    -0.6790 ca         1 6WH      -0.106500
      8 C57          1.8840     1.6880    -0.6520 c          1 6WH       0.629700
      9 C59          3.2800     1.3830    -0.2240 ca         1 6WH      -0.102600
     10 C60          4.3270     1.9770    -0.9270 ca         1 6WH      -0.163000
     11 C12         -0.1340    -6.0320     1.6680 cx         1 6WH      -0.125400
     12 C15          0.2240    -1.3520    -1.5940 c5         1 6WH       0.067300
     13 C17          1.3280    -0.7590    -0.7200 c5         1 6WH       0.102000
     14 C21         -0.3630     0.9230    -1.0900 c5         1 6WH       0.025700
     15 C23         -0.9800    -0.4690    -1.2850 c5         1 6WH      -0.107400
     16 C26         -1.0700     1.6200     0.0660 c          1 6WH       0.606100
     17 C30         -3.2290     2.6630     0.6360 c6         1 6WH       0.112700
     18 N1          -0.0110    -2.7530    -1.3350 na         1 6WH       0.129800
     19 N2           0.1270    -3.6470    -2.2960 nc         1 6WH      -0.200800
     20 N3          -0.1500    -4.8060    -1.8020 nd         1 6WH      -0.353000
     21 C4          -0.4770    -4.6720    -0.4960 cd         1 6WH       0.239300
     22 C5          -0.3930    -3.3380    -0.1840 cc         1 6WH      -0.213000
     23 C7          -0.8290    -5.8230     0.3480 cx         1 6WH      -0.146000
     24 C9          -1.5690    -5.6260     1.6390 cx         1 6WH      -0.125400
     25 N20          1.0270     0.6580    -0.7780 n          1 6WH      -0.401800
     26 O27         -0.6610     1.5240     1.2100 o          1 6WH      -0.589100
     27 N28         -2.1990     2.2480    -0.2940 ns         1 6WH      -0.493900
     28 C32         -4.5070     1.8400     0.4030 c6         1 6WH      -0.037400
     29 C34         -5.5810     2.2550     1.4130 c6         1 6WH      -0.066400
     30 C37         -5.8730     3.7490     1.3260 c6         1 6WH      -0.078400
     31 C40         -4.6050     4.5750     1.5150 c6         1 6WH      -0.074400
     32 O58          1.5330     2.8380    -0.8820 o          1 6WH      -0.588100
     33 C62          5.6430     1.7590    -0.5370 ca         1 6WH       0.162100
     34 C63          5.9250     0.9620     0.5850 ca         1 6WH      -0.100300
     35 C64          4.8630     0.4110     1.2840 ca         1 6WH      -0.085000
     36 C66          3.5440     0.6040     0.8910 ca         1 6WH      -0.123000
     37 C68          7.3370     0.7360     1.0520 c3         1 6WH       0.205100
     38 N71          7.8750     1.9410     1.6700 n8         1 6WH      -0.982200
     39 O74          6.7040     2.2670    -1.1880 os         1 6WH      -0.324100
     40 C75          6.4850     3.0670    -2.3320 c3         1 6WH       0.145900
     41 H1          -2.5990     4.7180     0.7130 hc         1 6WH       0.050200
     42 H2          -3.8380     4.3900    -0.4920 hc         1 6WH       0.050200
     43 H3          -3.4130     0.3100     2.4120 ha         1 6WH       0.115500
     44 H4          -3.0020    -2.1030     2.4130 ha         1 6WH       0.115000
     45 H5          -3.5920    -3.4770     0.4340 ha         1 6WH       0.119000
     46 H6          -4.5960    -2.3890    -1.5500 ha         1 6WH       0.115000
     47 H7          -4.9960     0.0400    -1.5550 ha         1 6WH       0.115500
     48 H8           4.0950     2.5940    -1.7850 ha         1 6WH       0.132000
     49 H9           0.1110    -7.0470     1.9540 hc         1 6WH       0.072700
     50 H10          0.6000    -5.2920     1.9640 hc         1 6WH       0.072700
     51 H11          0.4990    -1.2770    -2.6460 h1         1 6WH       0.103700
     52 H12          1.2590    -1.1470     0.3010 h1         1 6WH       0.068200
     53 H13          2.3230    -0.9800    -1.1020 h1         1 6WH       0.068200
     54 H14         -0.4400     1.5170    -2.0050 h1         1 6WH       0.079700
     55 H15         -1.7340    -0.4840    -2.0680 hc         1 6WH       0.077700
     56 H16         -1.4590    -0.8080    -0.3630 hc         1 6WH       0.077700
     57 H17         -2.8520     2.4540     1.6400 h1         1 6WH       0.084700
     58 H18         -0.5760    -2.7900     0.7250 h4         1 6WH       0.172000
     59 H19         -1.0660    -6.7190    -0.2140 hc         1 6WH       0.101700
     60 H20         -2.3200    -6.3600     1.8990 hc         1 6WH       0.072700
     61 H21         -1.8190    -4.6150     1.9350 hc         1 6WH       0.072700
     62 H22         -2.4380     2.2630    -1.2740 hn         1 6WH       0.307500
     63 H23         -4.8790     2.0950    -0.5980 hc         1 6WH       0.048700
     64 H24         -6.4910     1.6790     1.2320 hc         1 6WH       0.047200
     65 H25         -5.2440     2.0020     2.4250 hc         1 6WH       0.047200
     66 H26         -6.3060     3.9730     0.3450 hc         1 6WH       0.041700
     67 H27         -6.6230     4.0270     2.0690 hc         1 6WH       0.041700
     68 H28         -4.2360     4.4470     2.5390 hc         1 6WH       0.044700
     69 H29         -4.8240     5.6380     1.3950 hc         1 6WH       0.044700
     70 H30          5.0720    -0.1910     2.1600 ha         1 6WH       0.113000
     71 H31          2.7410     0.1640     1.4680 ha         1 6WH       0.125000
     72 H32          7.3380    -0.1370     1.7180 h1         1 6WH       0.035700
     73 H33          7.9720     0.4740     0.2040 h1         1 6WH       0.035700
     74 H34          7.3710     2.1270     2.5290 hn         1 6WH       0.391500
     75 H35          8.8330     1.7700     1.9460 hn         1 6WH       0.391500
     76 H37          7.4670     3.3480    -2.7040 h1         1 6WH       0.042367
     77 H38          5.9540     2.5230    -3.1180 h1         1 6WH       0.042367
     78 H39          5.9260     3.9750    -2.0930 h1         1 6WH       0.042367
@<TRIPOS>BOND
     1     1    17 1   
     2     1    31 1   
     3     1    41 1   
     4     1    42 1   
     5     2     3 ar  
     6     2     7 ar  
     7     2    28 1   
     8     3     4 ar  
     9     3    43 1   
    10     4     5 ar  
    11     4    44 1   
    12     5     6 ar  
    13     5    45 1   
    14     6     7 ar  
    15     6    46 1   
    16     7    47 1   
    17     8     9 1   
    18     8    25 1   
    19     8    32 2   
    20     9    10 ar  
    21     9    36 ar  
    22    10    33 ar  
    23    10    48 1   
    24    11    23 1   
    25    11    24 1   
    26    11    49 1   
    27    11    50 1   
    28    12    13 1   
    29    12    15 1   
    30    12    18 1   
    31    12    51 1   
    32    13    25 1   
    33    13    52 1   
    34    13    53 1   
    35    14    15 1   
    36    14    16 1   
    37    14    25 1   
    38    14    54 1   
    39    15    55 1   
    40    15    56 1   
    41    16    26 2   
    42    16    27 1   
    43    17    27 1   
    44    17    28 1   
    45    17    57 1   
    46    18    19 1   
    47    18    22 1   
    48    19    20 2   
    49    20    21 1   
    50    21    22 2   
    51    21    23 1   
    52    22    58 1   
    53    23    24 1   
    54    23    59 1   
    55    24    60 1   
    56    24    61 1   
    57    27    62 1   
    58    28    29 1   
    59    28    63 1   
    60    29    30 1   
    61    29    64 1   
    62    29    65 1   
    63    30    31 1   
    64    30    66 1   
    65    30    67 1   
    66    31    68 1   
    67    31    69 1   
    68    33    34 ar  
    69    33    39 1   
    70    34    35 ar  
    71    34    37 1   
    72    35    36 ar  
    73    35    70 1   
    74    36    71 1   
    75    37    38 1   
    76    37    72 1   
    77    37    73 1   
    78    38    74 1   
    79    38    75 1   
    80    39    40 1   
    81    40    76 1   
    82    40    77 1   
    83    40    78 1   
@<TRIPOS>SUBSTRUCTURE
     1 6WH         1 TEMP              0 ****  ****    0 ROOT
