@<TRIPOS>MOLECULE
6WH
   78    83     1     0     0
SMALL
No Charge or Current Charge


@<TRIPOS>ATOM
      1 C43         -4.0520     4.1780    -0.2820 c6         1 6WH      -0.084400
      2 C46         -4.1110     0.4690     1.0450 ca         1 6WH      -0.080300
      3 C47         -3.3870     0.3900     2.2520 ca         1 6WH      -0.106500
      4 C49         -2.9000    -0.8470     2.7100 ca         1 6WH      -0.115500
      5 C51         -3.1350    -2.0160     1.9680 ca         1 6WH      -0.114000
      6 C53         -3.8600    -1.9470     0.7670 ca         1 6WH      -0.115500
      7 C55         -4.3470    -0.7100     0.3080 ca         1 6WH      -0.106500
      8 C57          1.9700     1.7370    -0.7930 c          1 6WH       0.629700
      9 C59          3.3560     1.3860    -0.2830 ca         1 6WH      -0.102600
     10 C60          4.4850     2.0290    -0.8370 ca         1 6WH      -0.163000
     11 C12          0.0680    -6.8020     0.3580 cx         1 6WH      -0.125400
     12 C15          0.0030    -1.2230    -1.7070 c5         1 6WH       0.067300
     13 C17          1.2660    -0.7010    -0.9720 c5         1 6WH       0.102000
     14 C21         -0.4560     1.0680    -1.0920 c5         1 6WH       0.025700
     15 C23         -1.0980    -0.3480    -1.0550 c5         1 6WH      -0.107400
     16 C26         -1.1680     1.9480    -0.0170 c          1 6WH       0.606100
     17 C30         -3.4920     2.8730     0.3350 c6         1 6WH       0.112700
     18 N1          -0.2160    -2.6690    -1.5990 na         1 6WH       0.129800
     19 N2          -0.1000    -3.4810    -2.6890 nc         1 6WH      -0.200800
     20 N3          -0.3660    -4.6940    -2.2800 nd         1 6WH      -0.353000
     21 C4          -0.6510    -4.6600    -0.9330 cd         1 6WH       0.239300
     22 C5          -0.5570    -3.3800    -0.4750 cc         1 6WH      -0.213000
     23 C7          -1.0080    -5.8620    -0.1380 cx         1 6WH      -0.146000
     24 C9          -0.6970    -5.9500     1.3410 cx         1 6WH      -0.125400
     25 N20          0.9660     0.7420    -0.7930 n          1 6WH      -0.401800
     26 O27         -0.7440     2.2650     1.0880 o          1 6WH      -0.589100
     27 N28         -2.4100     2.3190    -0.4880 ns         1 6WH      -0.493900
     28 C32         -4.6270     1.8210     0.5190 c6         1 6WH      -0.037400
     29 C34         -5.7510     2.4030     1.4190 c6         1 6WH      -0.066400
     30 C37         -6.3120     3.7230     0.8320 c6         1 6WH      -0.078400
     31 C40         -5.1860     4.7620     0.5980 c6         1 6WH      -0.074400
     32 O58          1.7050     2.8790    -1.1510 o          1 6WH      -0.588100
     33 C62          5.7910     1.7360    -0.3800 ca         1 6WH       0.162100
     34 C63          5.9720     0.7980     0.6610 ca         1 6WH      -0.100300
     35 C64          4.8460     0.1740     1.2310 ca         1 6WH      -0.085000
     36 C66          3.5530     0.4690     0.7720 ca         1 6WH      -0.123000
     37 C68          7.3610     0.4410     1.1840 c3         1 6WH       0.205100
     38 N71          7.6510     1.1090     2.4690 n8         1 6WH      -0.982200
     39 O74          6.9060     2.3440    -0.9310 os         1 6WH      -0.324100
     40 C75          6.8190     3.3130    -1.9900 c3         1 6WH       0.145900
     41 H1          -3.2470     4.9170    -0.3850 hc         1 6WH       0.050200
     42 H2          -4.4310     3.9830    -1.2950 hc         1 6WH       0.050200
     43 H3          -3.1940     1.2870     2.8360 ha         1 6WH       0.115500
     44 H4          -2.3390    -0.8980     3.6410 ha         1 6WH       0.115000
     45 H5          -2.7590    -2.9730     2.3230 ha         1 6WH       0.119000
     46 H6          -4.0420    -2.8510     0.1900 ha         1 6WH       0.115000
     47 H7          -4.9040    -0.6720    -0.6250 ha         1 6WH       0.115500
     48 H8           4.3270     2.7480    -1.6360 ha         1 6WH       0.132000
     49 H9          -0.1420    -7.8690     0.3390 hc         1 6WH       0.072700
     50 H10          1.1050    -6.5390     0.1600 hc         1 6WH       0.072700
     51 H11          0.0810    -0.9610    -2.7710 h1         1 6WH       0.103700
     52 H12          1.3790    -1.2010    -0.0010 h1         1 6WH       0.068200
     53 H13          2.1780    -0.8730    -1.5590 h1         1 6WH       0.068200
     54 H14         -0.5540     1.5430    -2.0780 h1         1 6WH       0.079700
     55 H15         -2.0480    -0.3970    -1.5990 hc         1 6WH       0.077700
     56 H16         -1.2980    -0.6620    -0.0240 hc         1 6WH       0.077700
     57 H17         -3.0840     3.1200     1.3270 h1         1 6WH       0.084700
     58 H18         -0.7030    -2.9460     0.5040 h4         1 6WH       0.172000
     59 H19         -1.9380    -6.3180    -0.4690 hc         1 6WH       0.101700
     60 H20         -1.4240    -6.4430     1.9830 hc         1 6WH       0.072700
     61 H21         -0.1670    -5.1240     1.8090 hc         1 6WH       0.072700
     62 H22         -2.6450     2.0170    -1.4260 hn         1 6WH       0.307500
     63 H23         -5.0680     1.6450    -0.4730 hc         1 6WH       0.048700
     64 H24         -6.5630     1.6700     1.5200 hc         1 6WH       0.047200
     65 H25         -5.3670     2.5830     2.4330 hc         1 6WH       0.047200
     66 H26         -6.8250     3.5160    -0.1180 hc         1 6WH       0.041700
     67 H27         -7.0690     4.1400     1.5090 hc         1 6WH       0.041700
     68 H28         -4.7750     5.0840     1.5640 hc         1 6WH       0.044700
     69 H29         -5.6020     5.6610     0.1220 hc         1 6WH       0.044700
     70 H30          4.9730    -0.5390     2.0440 ha         1 6WH       0.113000
     71 H31          2.7040     0.0020     1.2660 ha         1 6WH       0.125000
     72 H32          7.4210    -0.6460     1.3350 h1         1 6WH       0.035700
     73 H33          8.1380     0.7170     0.4580 h1         1 6WH       0.035700
     74 H34          6.9690     0.7890     3.1650 hn         1 6WH       0.391500
     75 H35          8.5490     0.7640     2.8270 hn         1 6WH       0.391500
     76 H37          7.8210     3.6620    -2.2680 h1         1 6WH       0.042367
     77 H38          6.3530     2.8760    -2.8820 h1         1 6WH       0.042367
     78 H39          6.2320     4.1850    -1.6740 h1         1 6WH       0.042367
@<TRIPOS>BOND
     1     1    17 1   
     2     1    31 1   
     3     1    41 1   
     4     1    42 1   
     5     2     3 ar  
     6     2     7 ar  
     7     2    28 1   
     8     3     4 ar  
     9     3    43 1   
    10     4     5 ar  
    11     4    44 1   
    12     5     6 ar  
    13     5    45 1   
    14     6     7 ar  
    15     6    46 1   
    16     7    47 1   
    17     8     9 1   
    18     8    25 1   
    19     8    32 2   
    20     9    10 ar  
    21     9    36 ar  
    22    10    33 ar  
    23    10    48 1   
    24    11    23 1   
    25    11    24 1   
    26    11    49 1   
    27    11    50 1   
    28    12    13 1   
    29    12    15 1   
    30    12    18 1   
    31    12    51 1   
    32    13    25 1   
    33    13    52 1   
    34    13    53 1   
    35    14    15 1   
    36    14    16 1   
    37    14    25 1   
    38    14    54 1   
    39    15    55 1   
    40    15    56 1   
    41    16    26 2   
    42    16    27 1   
    43    17    27 1   
    44    17    28 1   
    45    17    57 1   
    46    18    19 1   
    47    18    22 1   
    48    19    20 2   
    49    20    21 1   
    50    21    22 2   
    51    21    23 1   
    52    22    58 1   
    53    23    24 1   
    54    23    59 1   
    55    24    60 1   
    56    24    61 1   
    57    27    62 1   
    58    28    29 1   
    59    28    63 1   
    60    29    30 1   
    61    29    64 1   
    62    29    65 1   
    63    30    31 1   
    64    30    66 1   
    65    30    67 1   
    66    31    68 1   
    67    31    69 1   
    68    33    34 ar  
    69    33    39 1   
    70    34    35 ar  
    71    34    37 1   
    72    35    36 ar  
    73    35    70 1   
    74    36    71 1   
    75    37    38 1   
    76    37    72 1   
    77    37    73 1   
    78    38    74 1   
    79    38    75 1   
    80    39    40 1   
    81    40    76 1   
    82    40    77 1   
    83    40    78 1   
@<TRIPOS>SUBSTRUCTURE
     1 6WH         1 TEMP              0 ****  ****    0 ROOT
