@<TRIPOS>MOLECULE
6WI
   50    52     1     0     0
SMALL
No Charge or Current Charge


@<TRIPOS>ATOM
      1 C4         -13.5990    21.1140    35.5280 cc         1 6WI       0.109400
      2 C5         -12.6040    20.4240    34.8760 cd         1 6WI       0.105500
      3 C6         -11.1920    20.8980    34.9970 c          1 6WI       0.520500
      4 C8         -14.4600    19.4090    34.4190 cc         1 6WI       0.475400
      5 N1         -11.0880    22.0120    35.7820 ns         1 6WI      -0.461400
      6 N3         -13.4050    22.2430    36.3000 nc         1 6WI      -0.672100
      7 CBD        -11.2310    18.0240    38.2500 c          1 6WI       0.717000
      8 OBG        -10.7700    19.1540    38.1590 o          1 6WI      -0.749000
      9 CBC        -12.6330    17.8490    38.9420 c3         1 6WI       0.013300
     10 OBD        -12.7680    16.5870    39.6650 oh         1 6WI      -0.705000
     11 CBE        -13.7520    18.0360    37.8780 c3         1 6WI       0.250600
     12 O3B        -13.7990    16.9000    37.0010 os         1 6WI      -0.579400
     13 PB         -15.1630    16.0520    36.8540 p5         1 6WI       1.477800
     14 O2B        -15.7790    15.7960    38.1910 o          1 6WI      -0.857000
     15 O1B        -14.8660    14.7950    36.1040 o          1 6WI      -0.857000
     16 O3A        -15.9310    17.1260    35.9990 os         1 6WI      -0.737800
     17 PA         -17.2350    16.5620    35.3260 p5         1 6WI       1.470800
     18 O2A        -18.0350    15.5890    36.1250 o          1 6WI      -0.852000
     19 O1A        -16.9660    16.0850    33.9380 o          1 6WI      -0.852000
     20 C9         -18.5410    18.5460    36.4610 c3         1 6WI       0.225600
     21 C7         -18.0700    20.0270    36.6100 c5         1 6WI       0.130300
     22 O4         -16.6200    20.0980    36.7000 os         1 6WI      -0.434000
     23 C3         -18.4840    20.9710    35.4220 c5         1 6WI       0.099300
     24 O3         -18.6810    22.3430    35.8310 oh         1 6WI      -0.730000
     25 C2         -17.2300    20.8580    34.5140 c5         1 6WI       0.130300
     26 O2         -17.1960    21.9520    33.5850 oh         1 6WI      -0.712000
     27 C1         -16.1210    20.9120    35.6150 c5         1 6WI       0.324300
     28 N9         -14.7780    20.4770    35.2370 na         1 6WI      -0.167500
     29 C10        -12.1460    22.6020    36.3760 cd         1 6WI       0.690800
     30 O6         -10.2160    20.3900    34.4610 o          1 6WI      -0.551000
     31 N7         -13.1510    19.3580    34.1720 nd         1 6WI      -0.616000
     32 H8         -15.2110    18.7290    34.0320 h5         1 6WI       0.134100
     33 HN1        -10.1610    22.3770    35.9250 hn         1 6WI       0.296500
     34 HN21       -12.7320    24.2180    37.3310 hn         1 6WI       0.483500
     35 HN22       -11.0880    24.2400    36.8410 hn         1 6WI       0.483500
     36 HBC        -12.7380    18.6710    39.6630 h1         1 6WI      -0.017300
     37 HBF        -13.5450    18.9450    37.3030 h1         1 6WI      -0.000300
     38 HBE        -14.7110    18.1910    38.3900 h1         1 6WI      -0.000300
     39 H5'        -19.6380    18.5240    36.4450 h1         1 6WI       0.044700
     40 H5         -18.2140    17.9920    37.3520 h1         1 6WI       0.044700
     41 H4         -18.4860    20.4010    37.5550 h1         1 6WI       0.036700
     42 H3         -19.3790    20.5900    34.9080 h1         1 6WI       0.075700
     43 HO3        -19.4700    22.3670    36.4230 ho         1 6WI       0.489000
     44 H2         -17.2120    19.8960    33.9830 h1         1 6WI       0.110700
     45 HO2        -17.7260    22.6510    34.0470 ho         1 6WI       0.501000
     46 H1         -16.0190    21.9460    35.9700 h2         1 6WI       0.082700
     47 N2         -11.9020    23.6910    37.0880 nv         1 6WI      -1.068200
     48 OBF        -10.5810    17.0200    37.9780 o          1 6WI      -0.749000
     49 O5         -18.0170    17.9670    35.2530 os         1 6WI      -0.616400
     50 HBD        -12.3860    15.9060    39.0650 ho         1 6WI       0.463000
@<TRIPOS>BOND
     1     1     2 2   
     2     1     6 1   
     3     1    28 1   
     4     2     3 1   
     5     2    31 1   
     6     3     5 1   
     7     3    30 2   
     8     4    28 1   
     9     4    31 2   
    10     4    32 1   
    11     5    29 1   
    12     5    33 1   
    13     6    29 2   
    14     7     8 1   
    15     7     9 1   
    16     7    48 1   
    17     9    10 1   
    18     9    11 1   
    19     9    36 1   
    20    10    50 1   
    21    11    12 1   
    22    11    37 1   
    23    11    38 1   
    24    12    13 1   
    25    13    14 1   
    26    13    15 1   
    27    13    16 1   
    28    16    17 1   
    29    17    18 1   
    30    17    19 1   
    31    17    49 1   
    32    20    21 1   
    33    20    39 1   
    34    20    40 1   
    35    20    49 1   
    36    21    22 1   
    37    21    23 1   
    38    21    41 1   
    39    22    27 1   
    40    23    24 1   
    41    23    25 1   
    42    23    42 1   
    43    24    43 1   
    44    25    26 1   
    45    25    27 1   
    46    25    44 1   
    47    26    45 1   
    48    27    28 1   
    49    27    46 1   
    50    29    47 1   
    51    34    47 1   
    52    35    47 1   
@<TRIPOS>SUBSTRUCTURE
     1 6WI         1 TEMP              0 ****  ****    0 ROOT
