@<TRIPOS>MOLECULE
6WI
   50    52     1     0     0
SMALL
abcg2


@<TRIPOS>ATOM
      1 C4         -13.8060    22.7210    34.5590 cc         1 6WI       0.109400
      2 C5         -12.7650    22.1440    33.8580 cd         1 6WI       0.105500
      3 C6         -11.6680    22.9620    33.4630 c          1 6WI       0.520500
      4 C8         -14.1410    20.5810    34.2280 cc         1 6WI       0.475400
      5 N1         -11.8580    24.2830    33.8940 ns         1 6WI      -0.461400
      6 N3         -13.9430    23.9980    34.9410 nc         1 6WI      -0.672100
      7 CBD        -11.9530    14.9360    40.0350 c          1 6WI       0.717000
      8 OBG        -11.3110    15.9710    39.8030 o          1 6WI      -0.749000
      9 CBC        -13.4740    15.0760    40.2880 c3         1 6WI       0.013300
     10 OBD        -14.0230    13.8140    40.5620 oh         1 6WI      -0.705000
     11 CBE        -14.1690    15.7460    39.1180 c3         1 6WI       0.250600
     12 O3B        -13.8910    15.0450    37.9190 os         1 6WI      -0.579400
     13 PB         -15.0780    14.7190    36.8430 p5         1 6WI       1.477800
     14 O2B        -16.2540    14.1060    37.5350 o          1 6WI      -0.857000
     15 O1B        -14.4160    14.0400    35.6880 o          1 6WI      -0.857000
     16 O3A        -15.4270    16.2850    36.4390 os         1 6WI      -0.737800
     17 PA         -16.4640    16.8800    35.3130 p5         1 6WI       1.470800
     18 O2A        -17.8460    16.3640    35.5640 o          1 6WI      -0.852000
     19 O1A        -15.8420    16.8210    33.9560 o          1 6WI      -0.852000
     20 C9         -16.8200    18.9060    37.0100 c3         1 6WI       0.225600
     21 C7         -17.0490    20.4030    36.9910 c5         1 6WI       0.130300
     22 O4         -15.8310    21.0980    36.7190 os         1 6WI      -0.434000
     23 C3         -18.0590    20.9060    35.9490 c5         1 6WI       0.099300
     24 O3         -18.7020    22.0840    36.3670 oh         1 6WI      -0.730000
     25 C2         -17.1420    21.2710    34.7820 c5         1 6WI       0.130300
     26 O2         -17.6140    22.2370    33.8940 oh         1 6WI      -0.712000
     27 C1         -15.9240    21.8210    35.5250 c5         1 6WI       0.324300
     28 N9         -14.6910    21.7110    34.7880 na         1 6WI      -0.167500
     29 C10        -12.9350    24.7560    34.5870 cd         1 6WI       0.690800
     30 O6         -10.6650    22.6540    32.8420 o          1 6WI      -0.551000
     31 N7         -12.9960    20.8060    33.6630 nd         1 6WI      -0.616000
     32 H8         -14.6350    19.6220    34.2770 h5         1 6WI       0.134100
     33 HN1        -11.1110    24.9260    33.6610 hn         1 6WI       0.296500
     34 HN21       -13.7670    26.4380    35.3210 hn         1 6WI       0.483500
     35 HN22       -12.2770    26.7010    34.5200 hn         1 6WI       0.483500
     36 HBC        -13.6070    15.7470    41.1520 h1         1 6WI      -0.017300
     37 HBF        -13.8130    16.7770    39.0330 h1         1 6WI      -0.000300
     38 HBE        -15.2450    15.7930    39.3160 h1         1 6WI      -0.000300
     39 H5'        -17.7630    18.4250    37.2960 h1         1 6WI       0.044700
     40 H5         -16.0880    18.6700    37.7900 h1         1 6WI       0.044700
     41 H4         -17.3910    20.6770    37.9970 h1         1 6WI       0.036700
     42 H3         -18.7820    20.1240    35.6840 h1         1 6WI       0.075700
     43 HO3        -19.2370    21.8810    37.1400 ho         1 6WI       0.489000
     44 H2         -16.8710    20.3450    34.2660 h1         1 6WI       0.110700
     45 HO2        -18.2670    21.8320    33.3150 ho         1 6WI       0.501000
     46 H1         -16.0610    22.8910    35.7200 h2         1 6WI       0.082700
     47 N2         -12.9210    26.0510    34.9380 nv         1 6WI      -1.068200
     48 OBF        -11.5230    13.7620    40.1000 o          1 6WI      -0.749000
     49 O5         -16.3670    18.4650    35.7530 os         1 6WI      -0.616400
     50 HBD        -13.2430    13.2350    40.4660 ho         1 6WI       0.463000
@<TRIPOS>BOND
     1     1     2 2   
     2     1     6 1   
     3     1    28 1   
     4     2     3 1   
     5     2    31 1   
     6     3     5 1   
     7     3    30 2   
     8     4    28 1   
     9     4    31 2   
    10     4    32 1   
    11     5    29 1   
    12     5    33 1   
    13     6    29 2   
    14     7     8 1   
    15     7     9 1   
    16     7    48 1   
    17     9    10 1   
    18     9    11 1   
    19     9    36 1   
    20    10    50 1   
    21    11    12 1   
    22    11    37 1   
    23    11    38 1   
    24    12    13 1   
    25    13    14 1   
    26    13    15 1   
    27    13    16 1   
    28    16    17 1   
    29    17    18 1   
    30    17    19 1   
    31    17    49 1   
    32    20    21 1   
    33    20    39 1   
    34    20    40 1   
    35    20    49 1   
    36    21    22 1   
    37    21    23 1   
    38    21    41 1   
    39    22    27 1   
    40    23    24 1   
    41    23    25 1   
    42    23    42 1   
    43    24    43 1   
    44    25    26 1   
    45    25    27 1   
    46    25    44 1   
    47    26    45 1   
    48    27    28 1   
    49    27    46 1   
    50    29    47 1   
    51    34    47 1   
    52    35    47 1   
@<TRIPOS>SUBSTRUCTURE
     1 6WI         1 TEMP              0 ****  ****    0 ROOT
