@<TRIPOS>MOLECULE
6WL
   33    35     1     0     0
SMALL
No Charge or Current Charge


@<TRIPOS>ATOM
      1 F01         -5.0400    -0.8780     0.0430 f          1 6WL      -0.114667
      2 C02         -4.0070    -0.0050     0.0770 c3         1 6WL       0.365300
      3 F03         -4.2380     0.8820    -0.9150 f          1 6WL      -0.114667
      4 F04         -4.1200     0.6520     1.2510 f          1 6WL      -0.114667
      5 C05         -2.6360    -0.6920    -0.0700 ca         1 6WL      -0.225300
      6 C06         -2.5900    -2.0910    -0.3170 ca         1 6WL      -0.014000
      7 C07         -1.3640    -2.7730    -0.4620 ca         1 6WL      -0.166000
      8 C08         -0.1480    -2.0850    -0.3410 ca         1 6WL       0.003000
      9 C09         -0.2040    -0.7140    -0.0600 ca         1 6WL      -0.232900
     10 C10         -1.3820    -0.0190     0.0320 ca         1 6WL       0.017800
     11 N11         -1.0230     1.3300     0.1980 na         1 6WL       0.094600
     12 C12         -1.9210     2.4960     0.2270 c3         1 6WL       0.071900
     13 N13          0.3630     1.5020     0.2020 nc         1 6WL      -0.587100
     14 C14          0.8520     0.2630     0.0930 cd         1 6WL       0.458500
     15 C15          2.3020    -0.0060     0.0790 ca         1 6WL      -0.248900
     16 C16          2.8130    -1.1680     0.6980 ca         1 6WL      -0.016000
     17 C17          4.1950    -1.4180     0.7110 ca         1 6WL      -0.195000
     18 C18          5.0810    -0.5050     0.1300 ca         1 6WL       0.193100
     19 O19          6.4180    -0.7540     0.1470 oh         1 6WL      -0.528100
     20 C20          4.5930     0.6720    -0.4470 ca         1 6WL      -0.266000
     21 C21          3.2160     0.9280    -0.4560 ca         1 6WL       0.229100
     22 O22          2.7750     2.0940    -0.9960 oh         1 6WL      -0.545100
     23 H1          -3.5060    -2.6710    -0.4150 ha         1 6WL       0.131000
     24 H2          -1.3610    -3.8410    -0.6710 ha         1 6WL       0.126000
     25 H3           0.7950    -2.6090    -0.4760 ha         1 6WL       0.126000
     26 H4          -2.5660     2.4570     1.1100 h1         1 6WL       0.065033
     27 H5          -1.3220     3.4120     0.2840 h1         1 6WL       0.065033
     28 H6          -2.5170     2.5360    -0.6900 h1         1 6WL       0.065033
     29 H7           2.1460    -1.8740     1.1880 ha         1 6WL       0.113000
     30 H8           4.5790    -2.3200     1.1810 ha         1 6WL       0.133000
     31 H9           6.8730    -0.0080    -0.2970 ho         1 6WL       0.470000
     32 H10          5.2740     1.3990    -0.8810 ha         1 6WL       0.131000
     33 H11          1.8290     2.1750    -0.7170 ho         1 6WL       0.506000
@<TRIPOS>BOND
     1     1     2 1   
     2     2     3 1   
     3     2     4 1   
     4     2     5 1   
     5     5     6 ar  
     6     5    10 ar  
     7     6     7 ar  
     8     6    23 1   
     9     7     8 ar  
    10     7    24 1   
    11     8     9 ar  
    12     8    25 1   
    13     9    10 ar  
    14     9    14 1   
    15    10    11 1   
    16    11    12 1   
    17    11    13 1   
    18    12    26 1   
    19    12    27 1   
    20    12    28 1   
    21    13    14 2   
    22    14    15 1   
    23    15    16 ar  
    24    15    21 ar  
    25    16    17 ar  
    26    16    29 1   
    27    17    18 ar  
    28    17    30 1   
    29    18    19 1   
    30    18    20 ar  
    31    19    31 1   
    32    20    21 ar  
    33    20    32 1   
    34    21    22 1   
    35    22    33 1   
@<TRIPOS>SUBSTRUCTURE
     1 6WL         1 TEMP              0 ****  ****    0 ROOT
