@<TRIPOS>MOLECULE
6WL
   33    35     1     0     0
SMALL
bcc


@<TRIPOS>ATOM
      1 F01         -5.0100    -0.8040    -0.0850 f          1 6WL      -0.235967
      2 C02         -3.9660     0.0260    -0.0560 c3         1 6WL       0.729200
      3 F03         -4.1070     0.8500    -1.1060 f          1 6WL      -0.235967
      4 F04         -4.1030     0.7750     1.0480 f          1 6WL      -0.235967
      5 C05         -2.6600    -0.7010    -0.0840 ca         1 6WL      -0.225300
      6 C06         -2.6610    -2.0750    -0.2050 ca         1 6WL      -0.032000
      7 C07         -1.4800    -2.8280    -0.2550 ca         1 6WL      -0.184000
      8 C08         -0.2560    -2.2130    -0.1620 ca         1 6WL      -0.015000
      9 C09         -0.2130    -0.8240    -0.0150 ca         1 6WL      -0.232900
     10 C10         -1.4020    -0.0580    -0.0030 ca         1 6WL       0.017800
     11 N11         -1.0130     1.2420     0.0760 na         1 6WL       0.123900
     12 C12         -1.7710     2.4720     0.1650 c3         1 6WL       0.042600
     13 N13          0.3190     1.3350     0.1340 nc         1 6WL      -0.587100
     14 C14          0.8410     0.1320     0.0880 cd         1 6WL       0.458500
     15 C15          2.2910    -0.0410     0.1010 ca         1 6WL      -0.248900
     16 C16          2.8830    -1.2430     0.4950 ca         1 6WL      -0.034000
     17 C17          4.2480    -1.4400     0.4750 ca         1 6WL      -0.213000
     18 C18          5.0770    -0.4010     0.0500 ca         1 6WL       0.193100
     19 O19          6.4020    -0.6220     0.0370 oh         1 6WL      -0.489100
     20 C20          4.5240     0.8170    -0.3230 ca         1 6WL      -0.284000
     21 C21          3.1470     1.0110    -0.2850 ca         1 6WL       0.229100
     22 O22          2.6970     2.2220    -0.6380 oh         1 6WL      -0.506100
     23 H1          -3.5990    -2.6080    -0.2730 ha         1 6WL       0.149000
     24 H2          -1.5450    -3.9010    -0.3680 ha         1 6WL       0.144000
     25 H3           0.6470    -2.8030    -0.2180 ha         1 6WL       0.144000
     26 H4          -2.3170     2.5350     1.1030 h1         1 6WL       0.065033
     27 H5          -1.0600     3.2890     0.1240 h1         1 6WL       0.065033
     28 H6          -2.4570     2.5760    -0.6710 h1         1 6WL       0.065033
     29 H7           2.2620    -2.0510     0.8560 ha         1 6WL       0.131000
     30 H8           4.6730    -2.3830     0.7950 ha         1 6WL       0.151000
     31 H9           6.8730     0.1610    -0.2700 ho         1 6WL       0.431000
     32 H10          5.1590     1.6400    -0.6320 ha         1 6WL       0.149000
     33 H11          1.7370     2.2790    -0.4580 ho         1 6WL       0.467000
@<TRIPOS>BOND
     1     1     2 1   
     2     2     3 1   
     3     2     4 1   
     4     2     5 1   
     5     5     6 ar  
     6     5    10 ar  
     7     6     7 ar  
     8     6    23 1   
     9     7     8 ar  
    10     7    24 1   
    11     8     9 ar  
    12     8    25 1   
    13     9    10 ar  
    14     9    14 1   
    15    10    11 1   
    16    11    12 1   
    17    11    13 1   
    18    12    26 1   
    19    12    27 1   
    20    12    28 1   
    21    13    14 2   
    22    14    15 1   
    23    15    16 ar  
    24    15    21 ar  
    25    16    17 ar  
    26    16    29 1   
    27    17    18 ar  
    28    17    30 1   
    29    18    19 1   
    30    18    20 ar  
    31    19    31 1   
    32    20    21 ar  
    33    20    32 1   
    34    21    22 1   
    35    22    33 1   
@<TRIPOS>SUBSTRUCTURE
     1 6WL         1 TEMP              0 ****  ****    0 ROOT
