@<TRIPOS>MOLECULE
6WM
   57    61     1     0     0
SMALL
abcg2


@<TRIPOS>ATOM
      1 C01          4.4280     1.4520    -1.2270 ca         1 6WM      -0.109500
      2 C02          5.1380     2.6350    -1.0560 ca         1 6WM      -0.109000
      3 C03          6.0220     2.7700     0.0060 ca         1 6WM      -0.113000
      4 C04          6.1890     1.7120     0.8920 ca         1 6WM      -0.109000
      5 C05          5.4780     0.5350     0.7160 ca         1 6WM      -0.109500
      6 C06          4.5850     0.3860    -0.3460 ca         1 6WM      -0.077300
      7 C07          3.8040    -0.8880    -0.5130 c3         1 6WM      -0.021100
      8 C08          2.6660    -0.9960     0.5080 c5         1 6WM      -0.091700
      9 C09          1.6250     0.1410     0.3960 c5         1 6WM      -0.063400
     10 C10          0.2870    -0.5710     0.5740 c5         1 6WM      -0.065700
     11 C11         -1.0000     0.1320     0.1860 c6         1 6WM      -0.046700
     12 C12         -1.1920     1.4870     0.8480 c6         1 6WM      -0.069400
     13 C13         -2.4130     2.1750     0.2590 c6         1 6WM      -0.034100
     14 C14         -3.6190     1.2740     0.1750 ca         1 6WM      -0.030300
     15 C15         -4.8640     1.8630    -0.0410 ca         1 6WM      -0.208000
     16 C16         -6.0180     1.0990    -0.1400 ca         1 6WM       0.137100
     17 O01         -7.2380     1.6410    -0.3490 oh         1 6WM      -0.535100
     18 C17         -5.9260    -0.2840    -0.0140 ca         1 6WM      -0.146000
     19 C18         -4.6890    -0.8640     0.2000 ca         1 6WM      -0.074000
     20 C19         -3.5130    -0.1170     0.2930 ca         1 6WM      -0.100300
     21 C20         -2.1760    -0.7860     0.5610 c6         1 6WM      -0.005400
     22 C21         -2.0390    -2.1690    -0.0900 c6         1 6WM      -0.069400
     23 C22         -0.6830    -2.8270     0.1920 c6         1 6WM      -0.061400
     24 C23          0.4790    -1.9030    -0.1640 c5         1 6WM      -0.039000
     25 C24          0.5660    -1.7360    -1.6860 c3         1 6WM      -0.074100
     26 C25          1.8340    -2.3180     0.4140 c5         1 6WM       0.176300
     27 O02          2.4250    -3.3590    -0.3230 oh         1 6WM      -0.650000
     28 H1           3.7430     1.3580    -2.0630 ha         1 6WM       0.109000
     29 H2           4.9990     3.4500    -1.7540 ha         1 6WM       0.110500
     30 H3           6.5780     3.6880     0.1400 ha         1 6WM       0.112000
     31 H4           6.8800     1.8040     1.7210 ha         1 6WM       0.110500
     32 H5           5.6210    -0.2850     1.4120 ha         1 6WM       0.109000
     33 H6           3.4050    -0.9400    -1.5290 hc         1 6WM       0.052700
     34 H7           4.4800    -1.7390    -0.4020 hc         1 6WM       0.052700
     35 H8           3.1240    -0.9570     1.5010 hc         1 6WM       0.045700
     36 H9           1.7860     0.9170     1.1450 hc         1 6WM       0.048700
     37 H10          1.6720     0.6360    -0.5790 hc         1 6WM       0.048700
     38 H11          0.1960    -0.8160     1.6440 hc         1 6WM       0.042700
     39 H12         -1.0080     0.2900    -0.9020 hc         1 6WM       0.057700
     40 H13         -1.3140     1.3530     1.9290 hc         1 6WM       0.044700
     41 H14         -0.3150     2.1220     0.7080 hc         1 6WM       0.044700
     42 H15         -2.6680     3.0710     0.8310 hc         1 6WM       0.048700
     43 H16         -2.1680     2.5260    -0.7500 hc         1 6WM       0.048700
     44 H17         -4.9260     2.9440    -0.1270 ha         1 6WM       0.109000
     45 H18         -7.1710     2.6000    -0.4010 ho         1 6WM       0.462000
     46 H19         -6.8150    -0.8980    -0.0820 ha         1 6WM       0.127000
     47 H20         -4.6510    -1.9420     0.2980 ha         1 6WM       0.112000
     48 H21         -2.1000    -0.9410     1.6480 hc         1 6WM       0.050700
     49 H22         -2.8180    -2.8390     0.2790 hc         1 6WM       0.043200
     50 H23         -2.2050    -2.0800    -1.1670 hc         1 6WM       0.043200
     51 H24         -0.6220    -3.0790     1.2570 hc         1 6WM       0.043700
     52 H25         -0.6170    -3.7720    -0.3540 hc         1 6WM       0.043700
     53 H26         -0.3830    -1.4180    -2.1180 hc         1 6WM       0.037367
     54 H27          1.3120    -1.0040    -1.9920 hc         1 6WM       0.037367
     55 H28          0.8270    -2.6840    -2.1570 hc         1 6WM       0.037367
     56 H29          1.6510    -2.6590     1.4430 h1         1 6WM       0.024700
     57 H30          3.1650    -3.7070     0.1830 ho         1 6WM       0.441000
@<TRIPOS>BOND
     1     1     2 ar  
     2     1     6 ar  
     3     1    28 1   
     4     2     3 ar  
     5     2    29 1   
     6     3     4 ar  
     7     3    30 1   
     8     4     5 ar  
     9     4    31 1   
    10     5     6 ar  
    11     5    32 1   
    12     6     7 1   
    13     7     8 1   
    14     7    33 1   
    15     7    34 1   
    16     8     9 1   
    17     8    26 1   
    18     8    35 1   
    19     9    10 1   
    20     9    36 1   
    21     9    37 1   
    22    10    11 1   
    23    10    24 1   
    24    10    38 1   
    25    11    12 1   
    26    11    21 1   
    27    11    39 1   
    28    12    13 1   
    29    12    40 1   
    30    12    41 1   
    31    13    14 1   
    32    13    42 1   
    33    13    43 1   
    34    14    15 ar  
    35    14    20 ar  
    36    15    16 ar  
    37    15    44 1   
    38    16    17 1   
    39    16    18 ar  
    40    17    45 1   
    41    18    19 ar  
    42    18    46 1   
    43    19    20 ar  
    44    19    47 1   
    45    20    21 1   
    46    21    22 1   
    47    21    48 1   
    48    22    23 1   
    49    22    49 1   
    50    22    50 1   
    51    23    24 1   
    52    23    51 1   
    53    23    52 1   
    54    24    25 1   
    55    24    26 1   
    56    25    53 1   
    57    25    54 1   
    58    25    55 1   
    59    26    27 1   
    60    26    56 1   
    61    27    57 1   
@<TRIPOS>SUBSTRUCTURE
     1 6WM         1 TEMP              0 ****  ****    0 ROOT
