@<TRIPOS>MOLECULE
6WM
   57    61     1     0     0
SMALL
No Charge or Current Charge


@<TRIPOS>ATOM
      1 C01          4.5260     1.3500    -1.3740 ca         1 6WM      -0.109500
      2 C02          5.1890     2.5860    -1.2840 ca         1 6WM      -0.109000
      3 C03          5.9820     2.8800    -0.1620 ca         1 6WM      -0.113000
      4 C04          6.1110     1.9360     0.8710 ca         1 6WM      -0.109000
      5 C05          5.4480     0.7000     0.7810 ca         1 6WM      -0.109500
      6 C06          4.6510     0.3990    -0.3410 ca         1 6WM      -0.077300
      7 C07          3.9270    -0.9400    -0.4320 c3         1 6WM      -0.021100
      8 C08          2.7040    -1.0480     0.5230 c5         1 6WM      -0.091700
      9 C09          1.6530     0.1060     0.3350 c5         1 6WM      -0.063400
     10 C10          0.3060    -0.6100     0.6120 c5         1 6WM      -0.065700
     11 C11         -1.0080     0.1380     0.2570 c6         1 6WM      -0.046700
     12 C12         -1.1960     1.4460     1.0520 c6         1 6WM      -0.069400
     13 C13         -2.4430     2.1980     0.5440 c6         1 6WM      -0.034100
     14 C14         -3.6660     1.3050     0.2860 ca         1 6WM      -0.030300
     15 C15         -4.9000     1.9420     0.0510 ca         1 6WM      -0.208000
     16 C16         -6.0540     1.1900    -0.1990 ca         1 6WM       0.137100
     17 O01         -7.2440     1.8140    -0.4220 oh         1 6WM      -0.535100
     18 C17         -5.9870    -0.2070    -0.2130 ca         1 6WM      -0.146000
     19 C18         -4.7630    -0.8570     0.0150 ca         1 6WM      -0.074000
     20 C19         -3.5810    -0.1150     0.2530 ca         1 6WM      -0.100300
     21 C20         -2.2330    -0.8300     0.5340 c6         1 6WM      -0.005400
     22 C21         -2.0880    -2.2620    -0.1460 c6         1 6WM      -0.069400
     23 C22         -0.6980    -2.9020     0.1540 c6         1 6WM      -0.061400
     24 C23          0.4880    -1.9450    -0.1820 c5         1 6WM      -0.039000
     25 C24          0.5640    -1.7980    -1.7450 c3         1 6WM      -0.074100
     26 C25          1.8510    -2.3800     0.4640 c5         1 6WM       0.176300
     27 O02          2.4930    -3.4510    -0.2320 oh         1 6WM      -0.650000
     28 H1           3.9120     1.1340    -2.2460 ha         1 6WM       0.109000
     29 H2           5.0880     3.3170    -2.0840 ha         1 6WM       0.110500
     30 H3           6.4950     3.8370    -0.0920 ha         1 6WM       0.112000
     31 H4           6.7240     2.1620     1.7400 ha         1 6WM       0.110500
     32 H5           5.5520    -0.0250     1.5850 ha         1 6WM       0.109000
     33 H6           3.6140    -1.1220    -1.4670 hc         1 6WM       0.052700
     34 H7           4.6410    -1.7400    -0.2020 hc         1 6WM       0.052700
     35 H8           3.1260    -0.9740     1.5310 hc         1 6WM       0.045700
     36 H9           1.8330     0.9310     1.0340 hc         1 6WM       0.048700
     37 H10          1.6790     0.5420    -0.6690 hc         1 6WM       0.048700
     38 H11          0.2230    -0.8130     1.6890 hc         1 6WM       0.042700
     39 H12         -0.9910     0.3920    -0.8110 hc         1 6WM       0.057700
     40 H13         -1.3050     1.2240     2.1230 hc         1 6WM       0.044700
     41 H14         -0.3160     2.0960     0.9530 hc         1 6WM       0.044700
     42 H15         -2.7030     2.9900     1.2590 hc         1 6WM       0.048700
     43 H16         -2.1880     2.7120    -0.3940 hc         1 6WM       0.048700
     44 H17         -4.9540     3.0270     0.0660 ha         1 6WM       0.109000
     45 H18         -7.0970     2.7820    -0.3710 ho         1 6WM       0.462000
     46 H19         -6.8850    -0.7910    -0.3980 ha         1 6WM       0.127000
     47 H20         -4.7570    -1.9420     0.0100 ha         1 6WM       0.112000
     48 H21         -2.2310    -1.0250     1.6160 hc         1 6WM       0.050700
     49 H22         -2.8560    -2.9480     0.2320 hc         1 6WM       0.043200
     50 H23         -2.2490    -2.1810    -1.2290 hc         1 6WM       0.043200
     51 H24         -0.6600    -3.1690     1.2200 hc         1 6WM       0.043700
     52 H25         -0.5940    -3.8480    -0.3950 hc         1 6WM       0.043700
     53 H26         -0.3320    -1.3320    -2.1670 hc         1 6WM       0.037367
     54 H27          1.4160    -1.2000    -2.0800 hc         1 6WM       0.037367
     55 H28          0.6660    -2.7790    -2.2240 hc         1 6WM       0.037367
     56 H29          1.6600    -2.7060     1.4970 h1         1 6WM       0.024700
     57 H30          3.2710    -3.7100     0.3060 ho         1 6WM       0.441000
@<TRIPOS>BOND
     1     1     2 ar  
     2     1     6 ar  
     3     1    28 1   
     4     2     3 ar  
     5     2    29 1   
     6     3     4 ar  
     7     3    30 1   
     8     4     5 ar  
     9     4    31 1   
    10     5     6 ar  
    11     5    32 1   
    12     6     7 1   
    13     7     8 1   
    14     7    33 1   
    15     7    34 1   
    16     8     9 1   
    17     8    26 1   
    18     8    35 1   
    19     9    10 1   
    20     9    36 1   
    21     9    37 1   
    22    10    11 1   
    23    10    24 1   
    24    10    38 1   
    25    11    12 1   
    26    11    21 1   
    27    11    39 1   
    28    12    13 1   
    29    12    40 1   
    30    12    41 1   
    31    13    14 1   
    32    13    42 1   
    33    13    43 1   
    34    14    15 ar  
    35    14    20 ar  
    36    15    16 ar  
    37    15    44 1   
    38    16    17 1   
    39    16    18 ar  
    40    17    45 1   
    41    18    19 ar  
    42    18    46 1   
    43    19    20 ar  
    44    19    47 1   
    45    20    21 1   
    46    21    22 1   
    47    21    48 1   
    48    22    23 1   
    49    22    49 1   
    50    22    50 1   
    51    23    24 1   
    52    23    51 1   
    53    23    52 1   
    54    24    25 1   
    55    24    26 1   
    56    25    53 1   
    57    25    54 1   
    58    25    55 1   
    59    26    27 1   
    60    26    56 1   
    61    27    57 1   
@<TRIPOS>SUBSTRUCTURE
     1 6WM         1 TEMP              0 ****  ****    0 ROOT
