@<TRIPOS>MOLECULE
6WN
   53    57     1     0     0
SMALL
abcg2


@<TRIPOS>ATOM
      1 O01         -2.3390    -3.2200    -0.0410 o          1 6WN      -0.515100
      2 C01         -1.8510    -2.1250     0.1340 c          1 6WN       0.579300
      3 C02         -0.3920    -1.8200     0.3990 c5         1 6WN      -0.148000
      4 C03         -0.2520    -1.8630     1.9330 c3         1 6WN      -0.080100
      5 C04          0.6390    -2.7150    -0.2680 c6         1 6WN      -0.052400
      6 C05          2.0430    -2.1150    -0.1210 c6         1 6WN      -0.071400
      7 C06          2.1300    -0.6530    -0.5840 c6         1 6WN      -0.004400
      8 C07          3.5160    -0.0520    -0.4360 ca         1 6WN      -0.102300
      9 C08          4.6620    -0.8240    -0.6240 ca         1 6WN      -0.068000
     10 C09          5.9390    -0.2960    -0.5320 ca         1 6WN      -0.206000
     11 C10          6.1010     1.0550    -0.2440 ca         1 6WN       0.139100
     12 O02          7.3130     1.6420    -0.1390 oh         1 6WN      -0.535100
     13 C11          4.9740     1.8440    -0.0600 ca         1 6WN      -0.149000
     14 C12          3.6920     1.3100    -0.1540 ca         1 6WN      -0.035300
     15 C13          2.5220     2.2310     0.0820 c6         1 6WN      -0.034100
     16 C14          1.1980     1.6570    -0.3960 c6         1 6WN      -0.068400
     17 C15          1.0640     0.2240     0.0940 c6         1 6WN      -0.046700
     18 C16         -0.2880    -0.4030    -0.1820 c5         1 6WN      -0.059700
     19 C17         -1.5750     0.2900     0.2700 c5         1 6WN      -0.027200
     20 C18         -2.5820    -0.8250     0.1590 ce         1 6WN      -0.213400
     21 C19         -3.9120    -0.7860    -0.0040 cf         1 6WN      -0.083200
     22 C20         -4.7900     0.3770    -0.0430 ca         1 6WN      -0.069800
     23 C21         -6.0330     0.2420    -0.6720 ca         1 6WN      -0.090000
     24 C22         -6.9020     1.3160    -0.7740 ca         1 6WN      -0.115000
     25 C23         -6.5540     2.5450    -0.2270 ca         1 6WN      -0.098000
     26 C24         -5.3360     2.6860     0.4280 ca         1 6WN      -0.115000
     27 C25         -4.4600     1.6160     0.5180 ca         1 6WN      -0.090000
     28 H1          -0.4540    -2.8730     2.2920 hc         1 6WN       0.042033
     29 H2           0.7510    -1.5960     2.2600 hc         1 6WN       0.042033
     30 H3          -0.9460    -1.1900     2.4390 hc         1 6WN       0.042033
     31 H4           0.6260    -3.7220     0.1550 hc         1 6WN       0.051200
     32 H5           0.3980    -2.8180    -1.3310 hc         1 6WN       0.051200
     33 H6           2.3760    -2.1860     0.9190 hc         1 6WN       0.043200
     34 H7           2.7320    -2.7330    -0.7000 hc         1 6WN       0.043200
     35 H8           1.8880    -0.6460    -1.6580 hc         1 6WN       0.053700
     36 H9           4.5710    -1.8780    -0.8540 ha         1 6WN       0.111000
     37 H10          6.8020    -0.9350    -0.6860 ha         1 6WN       0.113000
     38 H11          8.0110     0.9950    -0.2870 ho         1 6WN       0.464000
     39 H12          5.0960     2.9000     0.1560 ha         1 6WN       0.125000
     40 H13          2.4500     2.4310     1.1570 hc         1 6WN       0.050700
     41 H14          2.7180     3.1980    -0.3870 hc         1 6WN       0.050700
     42 H15          0.3790     2.2750    -0.0210 hc         1 6WN       0.044700
     43 H16          1.1380     1.6840    -1.4890 hc         1 6WN       0.044700
     44 H17          1.2440     0.2270     1.1770 hc         1 6WN       0.056700
     45 H18         -0.3700    -0.5100    -1.2750 hc         1 6WN       0.051700
     46 H19         -1.4940     0.6650     1.2960 hc         1 6WN       0.056700
     47 H20         -1.8370     1.1430    -0.3580 hc         1 6WN       0.056700
     48 H21         -4.4080    -1.7400    -0.1660 ha         1 6WN       0.193000
     49 H22         -6.3130    -0.7160    -1.0940 ha         1 6WN       0.115500
     50 H23         -7.8530     1.1940    -1.2770 ha         1 6WN       0.115000
     51 H24         -7.2320     3.3850    -0.3010 ha         1 6WN       0.114000
     52 H25         -5.0680     3.6350     0.8740 ha         1 6WN       0.115000
     53 H26         -3.5300     1.7440     1.0540 ha         1 6WN       0.115500
@<TRIPOS>BOND
     1     1     2 2   
     2     2     3 1   
     3     2    20 1   
     4     3     4 1   
     5     3     5 1   
     6     3    18 1   
     7     4    28 1   
     8     4    29 1   
     9     4    30 1   
    10     5     6 1   
    11     5    31 1   
    12     5    32 1   
    13     6     7 1   
    14     6    33 1   
    15     6    34 1   
    16     7     8 1   
    17     7    17 1   
    18     7    35 1   
    19     8     9 ar  
    20     8    14 ar  
    21     9    10 ar  
    22     9    36 1   
    23    10    11 ar  
    24    10    37 1   
    25    11    12 1   
    26    11    13 ar  
    27    12    38 1   
    28    13    14 ar  
    29    13    39 1   
    30    14    15 1   
    31    15    16 1   
    32    15    40 1   
    33    15    41 1   
    34    16    17 1   
    35    16    42 1   
    36    16    43 1   
    37    17    18 1   
    38    17    44 1   
    39    18    19 1   
    40    18    45 1   
    41    19    20 1   
    42    19    46 1   
    43    19    47 1   
    44    20    21 2   
    45    21    22 1   
    46    21    48 1   
    47    22    23 ar  
    48    22    27 ar  
    49    23    24 ar  
    50    23    49 1   
    51    24    25 ar  
    52    24    50 1   
    53    25    26 ar  
    54    25    51 1   
    55    26    27 ar  
    56    26    52 1   
    57    27    53 1   
@<TRIPOS>SUBSTRUCTURE
     1 6WN         1 TEMP              0 ****  ****    0 ROOT
