@<TRIPOS>MOLECULE
6WN
   53    57     1     0     0
SMALL
No Charge or Current Charge


@<TRIPOS>ATOM
      1 O01         -2.3260    -3.3770    -0.2890 o          1 6WN      -0.515100
      2 C01         -1.8670    -2.2910     0.0430 c          1 6WN       0.579300
      3 C02         -0.4230    -1.9240     0.4240 c5         1 6WN      -0.148000
      4 C03         -0.3170    -1.9500     1.9880 c3         1 6WN      -0.080100
      5 C04          0.6900    -2.8270    -0.1770 c6         1 6WN      -0.052400
      6 C05          2.1020    -2.1830    -0.0140 c6         1 6WN      -0.071400
      7 C06          2.1820    -0.7180    -0.5740 c6         1 6WN      -0.004400
      8 C07          3.5690    -0.0400    -0.4280 ca         1 6WN      -0.102300
      9 C08          4.7620    -0.7970    -0.5150 ca         1 6WN      -0.068000
     10 C09          6.0180    -0.1790    -0.4070 ca         1 6WN      -0.206000
     11 C10          6.1040     1.2050    -0.2230 ca         1 6WN       0.139100
     12 O02          7.3210     1.8080    -0.1170 oh         1 6WN      -0.535100
     13 C11          4.9370     1.9740    -0.1550 ca         1 6WN      -0.149000
     14 C12          3.6700     1.3690    -0.2660 ca         1 6WN      -0.035300
     15 C13          2.4340     2.2730    -0.1800 c6         1 6WN      -0.034100
     16 C14          1.1170     1.5860    -0.5970 c6         1 6WN      -0.068400
     17 C15          1.0390     0.1730     0.0200 c6         1 6WN      -0.046700
     18 C16         -0.3290    -0.5150    -0.2350 c5         1 6WN      -0.059700
     19 C17         -1.6460     0.1760     0.2340 c5         1 6WN      -0.027200
     20 C18         -2.6270    -1.0040     0.1260 ce         1 6WN      -0.213400
     21 C19         -3.9700    -0.8080    -0.0470 cf         1 6WN      -0.083200
     22 C20         -4.7960     0.4200    -0.0370 ca         1 6WN      -0.069800
     23 C21         -5.9610     0.4600    -0.8290 ca         1 6WN      -0.090000
     24 C22         -6.7810     1.6020    -0.8440 ca         1 6WN      -0.115000
     25 C23         -6.4500     2.7150    -0.0540 ca         1 6WN      -0.098000
     26 C24         -5.3030     2.6790     0.7550 ca         1 6WN      -0.115000
     27 C25         -4.4830     1.5370     0.7680 ca         1 6WN      -0.090000
     28 H1          -0.4110    -2.9760     2.3650 hc         1 6WN       0.042033
     29 H2           0.6380    -1.5600     2.3560 hc         1 6WN       0.042033
     30 H3          -1.1090    -1.3680     2.4740 hc         1 6WN       0.042033
     31 H4           0.6710    -3.8230     0.2870 hc         1 6WN       0.051200
     32 H5           0.4920    -2.9870    -1.2470 hc         1 6WN       0.051200
     33 H6           2.4080    -2.1940     1.0400 hc         1 6WN       0.043200
     34 H7           2.8130    -2.8310    -0.5420 hc         1 6WN       0.043200
     35 H8           2.0020    -0.7960    -1.6560 hc         1 6WN       0.053700
     36 H9           4.7350    -1.8710    -0.6740 ha         1 6WN       0.111000
     37 H10          6.9190    -0.7840    -0.4720 ha         1 6WN       0.113000
     38 H11          8.0140     1.1170    -0.1890 ho         1 6WN       0.464000
     39 H12          5.0140     3.0490    -0.0170 ha         1 6WN       0.125000
     40 H13          2.3370     2.6300     0.8550 hc         1 6WN       0.050700
     41 H14          2.5830     3.1710    -0.7960 hc         1 6WN       0.050700
     42 H15          0.2700     2.2040    -0.2710 hc         1 6WN       0.044700
     43 H16          1.0590     1.5230    -1.6920 hc         1 6WN       0.044700
     44 H17          1.1890     0.2730     1.1040 hc         1 6WN       0.056700
     45 H18         -0.3800    -0.6190    -1.3270 hc         1 6WN       0.051700
     46 H19         -1.5660     0.5570     1.2580 hc         1 6WN       0.056700
     47 H20         -1.9210     1.0130    -0.4180 hc         1 6WN       0.056700
     48 H21         -4.5600    -1.7100    -0.2260 ha         1 6WN       0.193000
     49 H22         -6.2290    -0.3940    -1.4480 ha         1 6WN       0.115500
     50 H23         -7.6730     1.6240    -1.4660 ha         1 6WN       0.115000
     51 H24         -7.0840     3.5990    -0.0630 ha         1 6WN       0.114000
     52 H25         -5.0520     3.5340     1.3790 ha         1 6WN       0.115000
     53 H26         -3.6210     1.5220     1.4270 ha         1 6WN       0.115500
@<TRIPOS>BOND
     1     1     2 2   
     2     2     3 1   
     3     2    20 1   
     4     3     4 1   
     5     3     5 1   
     6     3    18 1   
     7     4    28 1   
     8     4    29 1   
     9     4    30 1   
    10     5     6 1   
    11     5    31 1   
    12     5    32 1   
    13     6     7 1   
    14     6    33 1   
    15     6    34 1   
    16     7     8 1   
    17     7    17 1   
    18     7    35 1   
    19     8     9 ar  
    20     8    14 ar  
    21     9    10 ar  
    22     9    36 1   
    23    10    11 ar  
    24    10    37 1   
    25    11    12 1   
    26    11    13 ar  
    27    12    38 1   
    28    13    14 ar  
    29    13    39 1   
    30    14    15 1   
    31    15    16 1   
    32    15    40 1   
    33    15    41 1   
    34    16    17 1   
    35    16    42 1   
    36    16    43 1   
    37    17    18 1   
    38    17    44 1   
    39    18    19 1   
    40    18    45 1   
    41    19    20 1   
    42    19    46 1   
    43    19    47 1   
    44    20    21 2   
    45    21    22 1   
    46    21    48 1   
    47    22    23 ar  
    48    22    27 ar  
    49    23    24 ar  
    50    23    49 1   
    51    24    25 ar  
    52    24    50 1   
    53    25    26 ar  
    54    25    51 1   
    55    26    27 ar  
    56    26    52 1   
    57    27    53 1   
@<TRIPOS>SUBSTRUCTURE
     1 6WN         1 TEMP              0 ****  ****    0 ROOT
