@<TRIPOS>MOLECULE
6WP
   57    62     1     0     0
SMALL
No Charge or Current Charge


@<TRIPOS>ATOM
      1 C01         16.6490    -1.5440     3.1970 ca         1 6WP      -0.056000
      2 C02         16.3460    -0.8050     2.0390 ca         1 6WP      -0.172000
      3 C03         17.3220    -0.6220     1.0470 ca         1 6WP       0.142100
      4 O01         17.0360     0.0920    -0.0780 oh         1 6WP      -0.534100
      5 C04         18.5970    -1.1810     1.2080 ca         1 6WP      -0.172000
      6 C05         18.9020    -1.9210     2.3640 ca         1 6WP      -0.056000
      7 C06         17.9330    -2.1000     3.3710 ca         1 6WP      -0.077800
      8 C07         18.2520    -2.8910     4.5930 ce         1 6WP      -0.057400
      9 C08         19.4170    -2.9970     5.3020 cf         1 6WP      -0.080400
     10 C09         20.7080    -2.2910     5.1950 ca         1 6WP      -0.082800
     11 C10         20.7450    -0.9310     4.8260 ca         1 6WP      -0.058000
     12 C11         21.9740    -0.2560     4.7250 ca         1 6WP      -0.175500
     13 C12         23.1720    -0.9330     4.9920 ca         1 6WP       0.143100
     14 O02         24.3580    -0.2700     4.8890 oh         1 6WP      -0.534100
     15 C13         23.1450    -2.2860     5.3620 ca         1 6WP      -0.175500
     16 C14         21.9160    -2.9630     5.4660 ca         1 6WP      -0.058000
     17 C15         19.0820    -3.9960     6.4310 c5         1 6WP       0.219500
     18 O03         18.1220    -4.8390     5.8020 os         1 6WP      -0.411000
     19 C16         17.2540    -3.8330     5.2850 c5         1 6WP       0.176500
     20 C17         16.8460    -3.0810     6.5940 c5         1 6WP      -0.063400
     21 C18         18.1930    -3.1860     7.4220 c5         1 6WP      -0.370700
     22 S01         17.9560    -4.1940     8.9860 s6         1 6WP       1.343700
     23 O04         18.1770    -5.6210     8.7130 o          1 6WP      -0.521000
     24 O05         16.7120    -3.7730     9.6440 o          1 6WP      -0.521000
     25 O06         19.2050    -3.6400     9.9140 os         1 6WP      -0.462800
     26 C19         20.4620    -4.1640     9.7420 ca         1 6WP       0.136100
     27 C20         20.8790    -5.3260    10.4380 ca         1 6WP      -0.035000
     28 C21         20.0220    -6.0000    11.3370 ca         1 6WP      -0.074000
     29 C22         20.4580    -7.1560    12.0060 ca         1 6WP      -0.097000
     30 C23         21.7550    -7.6480    11.7900 ca         1 6WP      -0.094000
     31 C24         22.6210    -6.9800    10.9100 ca         1 6WP      -0.103000
     32 C25         22.1920    -5.8190    10.2380 ca         1 6WP      -0.028000
     33 C26         23.0760    -5.1430     9.3770 ca         1 6WP      -0.090000
     34 C27         22.6680    -3.9690     8.7250 ca         1 6WP      -0.104000
     35 C28         21.3660    -3.4790     8.9110 ca         1 6WP      -0.125000
     36 H1          15.8860    -1.6760     3.9600 ha         1 6WP       0.119000
     37 H2          15.3530    -0.3780     1.9220 ha         1 6WP       0.124500
     38 H3          16.1080     0.4030    -0.0210 ho         1 6WP       0.464000
     39 H4          19.3510    -1.0460     0.4370 ha         1 6WP       0.124500
     40 H5          19.8910    -2.3610     2.4730 ha         1 6WP       0.119000
     41 H6          19.8210    -0.3940     4.6270 ha         1 6WP       0.122500
     42 H7          21.9940     0.7930     4.4420 ha         1 6WP       0.125000
     43 H8          25.0830    -0.8950     5.1050 ho         1 6WP       0.465000
     44 H9          24.0690    -2.8210     5.5660 ha         1 6WP       0.125000
     45 H10         21.9090    -4.0150     5.7420 ha         1 6WP       0.122500
     46 H11         19.9300    -4.5570     6.8490 h1         1 6WP       0.110700
     47 H12         16.4400    -4.2340     4.6650 h1         1 6WP       0.105700
     48 H13         16.5520    -2.0420     6.4000 hc         1 6WP       0.070200
     49 H14         15.9920    -3.5720     7.0750 hc         1 6WP       0.070200
     50 H15         18.6110    -2.2170     7.7180 h1         1 6WP       0.113700
     51 H16         19.0160    -5.6330    11.5270 ha         1 6WP       0.123000
     52 H17         19.7900    -7.6700    12.6940 ha         1 6WP       0.120000
     53 H18         22.0910    -8.5440    12.3090 ha         1 6WP       0.117000
     54 H19         23.6280    -7.3620    10.7560 ha         1 6WP       0.116000
     55 H20         24.0870    -5.5170     9.2270 ha         1 6WP       0.119000
     56 H21         23.3650    -3.4370     8.0820 ha         1 6WP       0.119000
     57 H22         21.0580    -2.5630     8.4130 ha         1 6WP       0.131000
@<TRIPOS>BOND
     1     1     2 ar  
     2     1     7 ar  
     3     1    36 1   
     4     2     3 ar  
     5     2    37 1   
     6     3     4 1   
     7     3     5 ar  
     8     4    38 1   
     9     5     6 ar  
    10     5    39 1   
    11     6     7 ar  
    12     6    40 1   
    13     7     8 1   
    14     8     9 2   
    15     8    19 1   
    16     9    10 1   
    17     9    17 1   
    18    10    11 ar  
    19    10    16 ar  
    20    11    12 ar  
    21    11    41 1   
    22    12    13 ar  
    23    12    42 1   
    24    13    14 1   
    25    13    15 ar  
    26    14    43 1   
    27    15    16 ar  
    28    15    44 1   
    29    16    45 1   
    30    17    18 1   
    31    17    21 1   
    32    17    46 1   
    33    18    19 1   
    34    19    20 1   
    35    19    47 1   
    36    20    21 1   
    37    20    48 1   
    38    20    49 1   
    39    21    22 1   
    40    21    50 1   
    41    22    23 2   
    42    22    24 2   
    43    22    25 1   
    44    25    26 1   
    45    26    27 ar  
    46    26    35 ar  
    47    27    28 ar  
    48    27    32 ar  
    49    28    29 ar  
    50    28    51 1   
    51    29    30 ar  
    52    29    52 1   
    53    30    31 ar  
    54    30    53 1   
    55    31    32 ar  
    56    31    54 1   
    57    32    33 ar  
    58    33    34 ar  
    59    33    55 1   
    60    34    35 ar  
    61    34    56 1   
    62    35    57 1   
@<TRIPOS>SUBSTRUCTURE
     1 6WP         1 TEMP              0 ****  ****    0 ROOT
