@<TRIPOS>MOLECULE
6WP
   57    62     1     0     0
SMALL
abcg2


@<TRIPOS>ATOM
      1 C01         16.6060    -1.7720     3.1120 ca         1 6WP      -0.056000
      2 C02         16.2480    -1.0080     2.0090 ca         1 6WP      -0.172000
      3 C03         17.2210    -0.6090     1.0970 ca         1 6WP       0.142100
      4 O01         16.9300     0.1350    -0.0080 oh         1 6WP      -0.534100
      5 C04         18.5520    -0.9820     1.2970 ca         1 6WP      -0.172000
      6 C05         18.8990    -1.7350     2.4040 ca         1 6WP      -0.056000
      7 C06         17.9380    -2.1430     3.3430 ca         1 6WP      -0.077800
      8 C07         18.2910    -2.9550     4.5000 ce         1 6WP      -0.057400
      9 C08         19.4420    -3.0780     5.1940 cf         1 6WP      -0.080400
     10 C09         20.6990    -2.3300     5.1590 ca         1 6WP      -0.082800
     11 C10         20.7120    -0.9330     5.0540 ca         1 6WP      -0.058000
     12 C11         21.9000    -0.2210     5.0700 ca         1 6WP      -0.175500
     13 C12         23.1130    -0.8990     5.1890 ca         1 6WP       0.143100
     14 O02         24.2550    -0.1540     5.2030 oh         1 6WP      -0.534100
     15 C13         23.1230    -2.2880     5.2970 ca         1 6WP      -0.175500
     16 C14         21.9260    -2.9890     5.2900 ca         1 6WP      -0.058000
     17 C15         19.1190    -4.0670     6.3120 c5         1 6WP       0.219500
     18 O03         18.1270    -4.9070     5.7240 os         1 6WP      -0.411000
     19 C16         17.2900    -3.8420     5.2370 c5         1 6WP       0.176500
     20 C17         16.9120    -3.1390     6.5680 c5         1 6WP      -0.063400
     21 C18         18.2670    -3.2190     7.3220 c5         1 6WP      -0.370700
     22 S01         18.0690    -3.9740     8.9350 s6         1 6WP       1.343700
     23 O04         18.0540    -5.4080     8.8230 o          1 6WP      -0.521000
     24 O05         17.0140    -3.3070     9.6480 o          1 6WP      -0.521000
     25 O06         19.3970    -3.5120     9.7380 os         1 6WP      -0.462800
     26 C19         20.6300    -4.1660     9.5750 ca         1 6WP       0.136100
     27 C20         20.9140    -5.2940    10.3830 ca         1 6WP      -0.035000
     28 C21         20.0110    -5.8230    11.3350 ca         1 6WP      -0.074000
     29 C22         20.3560    -6.9180    12.0860 ca         1 6WP      -0.097000
     30 C23         21.6150    -7.5350    11.9190 ca         1 6WP      -0.094000
     31 C24         22.5140    -7.0370    11.0130 ca         1 6WP      -0.103000
     32 C25         22.1980    -5.9010    10.2260 ca         1 6WP      -0.028000
     33 C26         23.1230    -5.3540     9.3030 ca         1 6WP      -0.090000
     34 C27         22.8060    -4.2420     8.5670 ca         1 6WP      -0.104000
     35 C28         21.5410    -3.6340     8.7060 ca         1 6WP      -0.125000
     36 H1          15.8330    -2.0710     3.8070 ha         1 6WP       0.119000
     37 H2          15.2140    -0.7250     1.8520 ha         1 6WP       0.124500
     38 H3          15.9820     0.3230    -0.0390 ho         1 6WP       0.464000
     39 H4          19.3000    -0.6820     0.5740 ha         1 6WP       0.124500
     40 H5          19.9310    -2.0250     2.5380 ha         1 6WP       0.119000
     41 H6          19.7750    -0.4000     4.9720 ha         1 6WP       0.122500
     42 H7          21.9000     0.8590     5.0000 ha         1 6WP       0.125000
     43 H8          25.0270    -0.7290     5.2990 ho         1 6WP       0.465000
     44 H9          24.0660    -2.8140     5.3940 ha         1 6WP       0.125000
     45 H10         21.9480    -4.0670     5.3850 ha         1 6WP       0.122500
     46 H11         19.9340    -4.6440     6.7310 h1         1 6WP       0.110700
     47 H12         16.4560    -4.2360     4.6650 h1         1 6WP       0.105700
     48 H13         16.5790    -2.1120     6.4400 hc         1 6WP       0.070200
     49 H14         16.1290    -3.7020     7.0730 hc         1 6WP       0.070200
     50 H15         18.7060    -2.2450     7.5270 h1         1 6WP       0.113700
     51 H16         19.0460    -5.3570    11.4690 ha         1 6WP       0.123000
     52 H17         19.6590    -7.3140    12.8130 ha         1 6WP       0.120000
     53 H18         21.8690    -8.4020    12.5160 ha         1 6WP       0.117000
     54 H19         23.4850    -7.5000    10.8860 ha         1 6WP       0.116000
     55 H20         24.0910    -5.8260     9.1970 ha         1 6WP       0.119000
     56 H21         23.5180    -3.8200     7.8720 ha         1 6WP       0.119000
     57 H22         21.2880    -2.7540     8.1320 ha         1 6WP       0.131000
@<TRIPOS>BOND
     1     1     2 ar  
     2     1     7 ar  
     3     1    36 1   
     4     2     3 ar  
     5     2    37 1   
     6     3     4 1   
     7     3     5 ar  
     8     4    38 1   
     9     5     6 ar  
    10     5    39 1   
    11     6     7 ar  
    12     6    40 1   
    13     7     8 1   
    14     8     9 2   
    15     8    19 1   
    16     9    10 1   
    17     9    17 1   
    18    10    11 ar  
    19    10    16 ar  
    20    11    12 ar  
    21    11    41 1   
    22    12    13 ar  
    23    12    42 1   
    24    13    14 1   
    25    13    15 ar  
    26    14    43 1   
    27    15    16 ar  
    28    15    44 1   
    29    16    45 1   
    30    17    18 1   
    31    17    21 1   
    32    17    46 1   
    33    18    19 1   
    34    19    20 1   
    35    19    47 1   
    36    20    21 1   
    37    20    48 1   
    38    20    49 1   
    39    21    22 1   
    40    21    50 1   
    41    22    23 2   
    42    22    24 2   
    43    22    25 1   
    44    25    26 1   
    45    26    27 ar  
    46    26    35 ar  
    47    27    28 ar  
    48    27    32 ar  
    49    28    29 ar  
    50    28    51 1   
    51    29    30 ar  
    52    29    52 1   
    53    30    31 ar  
    54    30    53 1   
    55    31    32 ar  
    56    31    54 1   
    57    32    33 ar  
    58    33    34 ar  
    59    33    55 1   
    60    34    35 ar  
    61    34    56 1   
    62    35    57 1   
@<TRIPOS>SUBSTRUCTURE
     1 6WP         1 TEMP              0 ****  ****    0 ROOT
