@<TRIPOS>MOLECULE
6WQ
   42    45     1     0     0
SMALL
No Charge or Current Charge


@<TRIPOS>ATOM
      1 O01         -1.2660    -5.5290    -0.0020 oh         1 6WQ      -0.531600
      2 C02         -1.3490    -4.1690    -0.0010 ca         1 6WQ       0.143100
      3 C03         -2.0170    -3.5160     1.0450 ca         1 6WQ      -0.180750
      4 C04         -2.1100    -2.1140     1.0560 ca         1 6WQ      -0.056500
      5 C05         -1.5260    -1.3580     0.0210 ca         1 6WQ      -0.093300
      6 C06         -1.6360     0.1270     0.0200 ce         1 6WQ       0.022600
      7 C07         -3.0590     0.5780     0.0080 ca         1 6WQ      -0.093300
      8 C08         -3.5720     1.3620     1.0610 ca         1 6WQ      -0.056500
      9 C09         -4.9160     1.7740     1.0490 ca         1 6WQ      -0.180750
     10 C10         -5.7550     1.4000    -0.0120 ca         1 6WQ       0.143100
     11 O11         -7.0580     1.7950    -0.0310 oh         1 6WQ      -0.531600
     12 C12         -5.2540     0.6120    -1.0580 ca         1 6WQ      -0.180750
     13 C13         -3.9100     0.1980    -1.0480 ca         1 6WQ      -0.056500
     14 C14         -0.5530     0.9670    -0.0130 cf         1 6WQ      -0.050400
     15 C15         -0.8300     2.4860    -0.1790 c5         1 6WQ      -0.041200
     16 C16          0.5690     3.0950    -0.5880 c5         1 6WQ      -0.035100
     17 C17          1.5240     1.9440    -0.2970 ca         1 6WQ      -0.082300
     18 C18          0.8840     0.7550     0.0140 ca         1 6WQ      -0.046800
     19 C19          1.6100    -0.4050     0.3370 ca         1 6WQ      -0.081000
     20 C20          3.0170    -0.3510     0.3070 ca         1 6WQ      -0.093000
     21 C21          3.6710     0.8520    -0.0300 ca         1 6WQ      -0.013900
     22 Br           5.5810     0.9170    -0.0650 br         1 6WQ      -0.103100
     23 C23          2.9260     2.0090    -0.3310 ca         1 6WQ      -0.079000
     24 C24         -0.8670    -2.0200    -1.0340 ca         1 6WQ      -0.056500
     25 C25         -0.7750    -3.4230    -1.0420 ca         1 6WQ      -0.180750
     26 H1          -0.7710    -5.8080    -0.8020 ho         1 6WQ       0.465000
     27 H2          -2.4650    -4.0960     1.8490 ha         1 6WQ       0.122000
     28 H3          -2.6310    -1.6120     1.8690 ha         1 6WQ       0.119500
     29 H5          -2.9290     1.6440     1.8920 ha         1 6WQ       0.119500
     30 H6          -5.2970     2.3800     1.8680 ha         1 6WQ       0.122000
     31 H7          -7.2310     2.3320     0.7720 ho         1 6WQ       0.465000
     32 H8          -5.9050     0.3190    -1.8780 ha         1 6WQ       0.122000
     33 H9          -3.5270    -0.4140    -1.8620 ha         1 6WQ       0.119500
     34 H11         -1.5910     2.6950    -0.9410 hc         1 6WQ       0.057700
     35 H12         -1.1800     2.9250     0.7620 hc         1 6WQ       0.057700
     36 H13          0.5910     3.3710    -1.6480 hc         1 6WQ       0.057700
     37 H14          0.8070     3.9950    -0.0100 hc         1 6WQ       0.057700
     38 H15          1.1080    -1.3250     0.6220 ha         1 6WQ       0.130000
     39 H16          3.5980    -1.2370     0.5520 ha         1 6WQ       0.129000
     40 H17          3.4300     2.9400    -0.5820 ha         1 6WQ       0.130000
     41 H18         -0.4250    -1.4440    -1.8440 ha         1 6WQ       0.119500
     42 H19         -0.2600    -3.9210    -1.8600 ha         1 6WQ       0.122000
@<TRIPOS>BOND
     1     1     2 1   
     2     1    26 1   
     3     2     3 ar  
     4     2    25 ar  
     5     3     4 ar  
     6     3    27 1   
     7     4     5 ar  
     8     4    28 1   
     9     5     6 1   
    10     5    24 ar  
    11     6     7 1   
    12     6    14 2   
    13     7     8 ar  
    14     7    13 ar  
    15     8     9 ar  
    16     8    29 1   
    17     9    10 ar  
    18     9    30 1   
    19    10    11 1   
    20    10    12 ar  
    21    11    31 1   
    22    12    13 ar  
    23    12    32 1   
    24    13    33 1   
    25    14    15 1   
    26    14    18 1   
    27    15    16 1   
    28    15    34 1   
    29    15    35 1   
    30    16    17 1   
    31    16    36 1   
    32    16    37 1   
    33    17    18 ar  
    34    17    23 ar  
    35    18    19 ar  
    36    19    20 ar  
    37    19    38 1   
    38    20    21 ar  
    39    20    39 1   
    40    21    22 1   
    41    21    23 ar  
    42    23    40 1   
    43    24    25 ar  
    44    24    41 1   
    45    25    42 1   
@<TRIPOS>SUBSTRUCTURE
     1 6WQ         1 TEMP              0 ****  ****    0 ROOT
