@<TRIPOS>MOLECULE
6WQ
   42    45     1     0     0
SMALL
bcc


@<TRIPOS>ATOM
      1 O01         -0.9460    -5.4010    -0.2660 oh         1 6WQ      -0.492600
      2 C02         -1.1090    -4.0640    -0.2340 ca         1 6WQ       0.143100
      3 C03         -1.7670    -3.5150     0.8660 ca         1 6WQ      -0.198750
      4 C04         -1.9620    -2.1470     0.9410 ca         1 6WQ      -0.074500
      5 C05         -1.4940    -1.2900    -0.0550 ca         1 6WQ      -0.093300
      6 C06         -1.7080     0.1740     0.0390 ce         1 6WQ       0.022600
      7 C07         -3.1180     0.6120     0.0580 ca         1 6WQ      -0.093300
      8 C08         -3.5650     1.6690     0.8520 ca         1 6WQ      -0.074500
      9 C09         -4.8930     2.0630     0.8610 ca         1 6WQ      -0.198750
     10 C10         -5.8230     1.4000     0.0640 ca         1 6WQ       0.143100
     11 O11         -7.1250     1.7390     0.0250 oh         1 6WQ      -0.492600
     12 C12         -5.4010     0.3320    -0.7270 ca         1 6WQ      -0.198750
     13 C13         -4.0740    -0.0550    -0.7170 ca         1 6WQ      -0.074500
     14 C14         -0.6740     1.0380     0.0560 cf         1 6WQ      -0.050400
     15 C15         -0.7570     2.5450    -0.0710 c5         1 6WQ      -0.041200
     16 C16          0.5850     2.9580    -0.6950 c5         1 6WQ      -0.035100
     17 C17          1.4980     1.8340    -0.3020 ca         1 6WQ      -0.082300
     18 C18          0.7620     0.7210     0.1160 ca         1 6WQ      -0.046800
     19 C19          1.4340    -0.4160     0.5580 ca         1 6WQ      -0.099000
     20 C20          2.8210    -0.4420     0.5530 ca         1 6WQ      -0.111000
     21 C21          3.5290     0.6670     0.1040 ca         1 6WQ      -0.013900
     22 BR           5.4180     0.6150     0.0980 br         1 6WQ      -0.103100
     23 C23          2.8820     1.8180    -0.3250 ca         1 6WQ      -0.097000
     24 C24         -0.8510    -1.8550    -1.1520 ca         1 6WQ      -0.074500
     25 C25         -0.6560    -3.2240    -1.2480 ca         1 6WQ      -0.198750
     26 H1          -0.5020    -5.6670    -1.0790 ho         1 6WQ       0.426000
     27 H2          -2.1260    -4.1630     1.6560 ha         1 6WQ       0.140000
     28 H3          -2.4770    -1.7370     1.8020 ha         1 6WQ       0.137500
     29 H5          -2.8730     2.1870     1.5020 ha         1 6WQ       0.137500
     30 H6          -5.2030     2.8850     1.4960 ha         1 6WQ       0.140000
     31 H7          -7.2960     2.4850     0.6110 ho         1 6WQ       0.426000
     32 H8          -6.1170    -0.1930    -1.3480 ha         1 6WQ       0.140000
     33 H9          -3.7730    -0.8920    -1.3330 ha         1 6WQ       0.137500
     34 H11         -1.6180     2.8750    -0.6520 hc         1 6WQ       0.057700
     35 H12         -0.8440     3.0030     0.9190 hc         1 6WQ       0.057700
     36 H13          0.5080     3.0160    -1.7850 hc         1 6WQ       0.057700
     37 H14          0.9340     3.9290    -0.3460 hc         1 6WQ       0.057700
     38 H15          0.9010    -1.2820     0.9220 ha         1 6WQ       0.148000
     39 H16          3.3390    -1.3240     0.9060 ha         1 6WQ       0.147000
     40 H17          3.4370     2.6860    -0.6580 ha         1 6WQ       0.148000
     41 H18         -0.4890    -1.2160    -1.9480 ha         1 6WQ       0.137500
     42 H19         -0.1570    -3.6360    -2.1180 ha         1 6WQ       0.140000
@<TRIPOS>BOND
     1     1     2 1   
     2     1    26 1   
     3     2     3 ar  
     4     2    25 ar  
     5     3     4 ar  
     6     3    27 1   
     7     4     5 ar  
     8     4    28 1   
     9     5     6 1   
    10     5    24 ar  
    11     6     7 1   
    12     6    14 2   
    13     7     8 ar  
    14     7    13 ar  
    15     8     9 ar  
    16     8    29 1   
    17     9    10 ar  
    18     9    30 1   
    19    10    11 1   
    20    10    12 ar  
    21    11    31 1   
    22    12    13 ar  
    23    12    32 1   
    24    13    33 1   
    25    14    15 1   
    26    14    18 1   
    27    15    16 1   
    28    15    34 1   
    29    15    35 1   
    30    16    17 1   
    31    16    36 1   
    32    16    37 1   
    33    17    18 ar  
    34    17    23 ar  
    35    18    19 ar  
    36    19    20 ar  
    37    19    38 1   
    38    20    21 ar  
    39    20    39 1   
    40    21    22 1   
    41    21    23 ar  
    42    23    40 1   
    43    24    25 ar  
    44    24    41 1   
    45    25    42 1   
@<TRIPOS>SUBSTRUCTURE
     1 6WQ         1 TEMP              0 ****  ****    0 ROOT
