@<TRIPOS>MOLECULE
6WR
   35    37     1     0     0
SMALL
abcg2


@<TRIPOS>ATOM
      1 C01          3.3100    -1.7740    -0.0380 ca         1 6WR      -0.207000
      2 C02          4.1810    -0.6910    -0.1300 ca         1 6WR       0.148100
      3 C03          3.6670     0.6010    -0.1350 ca         1 6WR      -0.146000
      4 C04          2.2970     0.7910    -0.0420 ca         1 6WR       0.166000
      5 C05          1.3980    -0.2680     0.0610 ca         1 6WR      -0.078800
      6 C06          1.9480    -1.5490     0.0490 ca         1 6WR      -0.055000
      7 O01          5.5160    -0.8310    -0.2190 oh         1 6WR      -0.529100
      8 CL           1.7130     2.4250    -0.0830 cl         1 6WR      -0.197000
      9 C07         -0.0710    -0.0900     0.1460 ce         1 6WR      -0.067400
     10 C08         -0.8550    -0.4530    -1.0830 c6         1 6WR      -0.024200
     11 C09         -2.3600    -0.4990    -0.8620 c5         1 6WR      -0.059700
     12 C10         -2.8890     0.5770     0.0900 c5         1 6WR      -0.055700
     13 C11         -2.1160     0.5910     1.4110 c6         1 6WR      -0.037200
     14 C12         -0.6450     0.3810     1.2510 c2         1 6WR      -0.189200
     15 C13         -2.8960    -1.7950    -0.2390 c5         1 6WR      -0.071400
     16 C14         -4.2250    -1.3990     0.4390 c5         1 6WR      -0.114400
     17 C15         -4.3310     0.1360     0.3220 c5         1 6WR       0.164300
     18 O02         -5.0930     0.5410    -0.8000 oh         1 6WR      -0.659000
     19 H1           3.6920    -2.7890    -0.0340 ha         1 6WR       0.117000
     20 H2           4.3370     1.4480    -0.2140 ha         1 6WR       0.144000
     21 H3           1.2810    -2.4000     0.1210 ha         1 6WR       0.118000
     22 H4           5.7560    -1.7640    -0.2230 ho         1 6WR       0.467000
     23 H5          -0.6110     0.2720    -1.8680 hc         1 6WR       0.051700
     24 H6          -0.5080    -1.4180    -1.4700 hc         1 6WR       0.051700
     25 H7          -2.8460    -0.3580    -1.8310 hc         1 6WR       0.064700
     26 H8          -2.8430     1.5730    -0.3590 hc         1 6WR       0.075700
     27 H9          -2.2950     1.5400     1.9250 hc         1 6WR       0.047200
     28 H10         -2.5000    -0.1730     2.0980 hc         1 6WR       0.047200
     29 H11         -0.0240     0.6250     2.1070 ha         1 6WR       0.177000
     30 H12         -3.0240    -2.5770    -0.9890 hc         1 6WR       0.042700
     31 H13         -2.1900    -2.1850     0.4990 hc         1 6WR       0.042700
     32 H14         -5.0870    -1.8830    -0.0250 hc         1 6WR       0.043700
     33 H15         -4.2360    -1.7020     1.4870 hc         1 6WR       0.043700
     34 H16         -4.7460     0.5750     1.2400 h1         1 6WR       0.036700
     35 H17         -5.9680     0.1500    -0.7240 ho         1 6WR       0.440000
@<TRIPOS>BOND
     1     1     2 ar  
     2     1     6 ar  
     3     1    19 1   
     4     2     3 ar  
     5     2     7 1   
     6     3     4 ar  
     7     3    20 1   
     8     4     5 ar  
     9     4     8 1   
    10     5     6 ar  
    11     5     9 1   
    12     6    21 1   
    13     7    22 1   
    14     9    10 1   
    15     9    14 2   
    16    10    11 1   
    17    10    23 1   
    18    10    24 1   
    19    11    12 1   
    20    11    15 1   
    21    11    25 1   
    22    12    13 1   
    23    12    17 1   
    24    12    26 1   
    25    13    14 1   
    26    13    27 1   
    27    13    28 1   
    28    14    29 1   
    29    15    16 1   
    30    15    30 1   
    31    15    31 1   
    32    16    17 1   
    33    16    32 1   
    34    16    33 1   
    35    17    18 1   
    36    17    34 1   
    37    18    35 1   
@<TRIPOS>SUBSTRUCTURE
     1 6WR         1 TEMP              0 ****  ****    0 ROOT
