@<TRIPOS>MOLECULE
6WR
   35    37     1     0     0
SMALL
No Charge or Current Charge


@<TRIPOS>ATOM
      1 C01          3.3440    -1.7860    -0.0700 ca         1 6WR      -0.207000
      2 C02          4.2180    -0.6910    -0.1440 ca         1 6WR       0.148100
      3 C03          3.7100     0.6150    -0.1310 ca         1 6WR      -0.146000
      4 C04          2.3250     0.8320    -0.0410 ca         1 6WR       0.166000
      5 C05          1.4380    -0.2640     0.0360 ca         1 6WR      -0.078800
      6 C06          1.9570    -1.5730     0.0200 ca         1 6WR      -0.055000
      7 O01          5.5620    -0.8930    -0.2310 oh         1 6WR      -0.529100
      8 Cl           1.7240     2.4900    -0.0490 cl         1 6WR      -0.197000
      9 C07         -0.0330    -0.0640     0.1330 ce         1 6WR      -0.067400
     10 C08         -0.8550    -0.4330    -1.1120 c6         1 6WR      -0.024200
     11 C09         -2.3770    -0.5290    -0.8460 c5         1 6WR      -0.059700
     12 C10         -2.8980     0.5610     0.1260 c5         1 6WR      -0.055700
     13 C11         -2.0960     0.6410     1.4560 c6         1 6WR      -0.037200
     14 C12         -0.5990     0.4320     1.2590 c2         1 6WR      -0.189200
     15 C13         -2.8610    -1.8200    -0.1320 c5         1 6WR      -0.071400
     16 C14         -4.3030    -1.4460     0.3440 c5         1 6WR      -0.114400
     17 C15         -4.3850     0.1200     0.2890 c5         1 6WR       0.164300
     18 O02         -5.1890     0.5600    -0.8070 oh         1 6WR      -0.659000
     19 H1           3.7290    -2.8030    -0.0790 ha         1 6WR       0.117000
     20 H2           4.3870     1.4610    -0.1930 ha         1 6WR       0.144000
     21 H3           1.2820    -2.4250     0.0810 ha         1 6WR       0.118000
     22 H4           5.7300    -1.8600    -0.2280 ho         1 6WR       0.467000
     23 H5          -0.6760     0.3360    -1.8770 hc         1 6WR       0.051700
     24 H6          -0.4960    -1.3770    -1.5430 hc         1 6WR       0.051700
     25 H7          -2.8510    -0.4430    -1.8320 hc         1 6WR       0.064700
     26 H8          -2.8190     1.5570    -0.3250 hc         1 6WR       0.075700
     27 H9          -2.2760     1.6130     1.9350 hc         1 6WR       0.047200
     28 H10         -2.4600    -0.1130     2.1660 hc         1 6WR       0.047200
     29 H11          0.0270     0.6870     2.1160 ha         1 6WR       0.177000
     30 H12         -2.8600    -2.6850    -0.8040 hc         1 6WR       0.042700
     31 H13         -2.2180    -2.0810     0.7160 hc         1 6WR       0.042700
     32 H14         -5.0640    -1.9140    -0.2910 hc         1 6WR       0.043700
     33 H15         -4.4810    -1.8160     1.3600 hc         1 6WR       0.043700
     34 H16         -4.8040     0.5200     1.2240 h1         1 6WR       0.036700
     35 H17         -6.0950     0.2180    -0.6460 ho         1 6WR       0.440000
@<TRIPOS>BOND
     1     1     2 ar  
     2     1     6 ar  
     3     1    19 1   
     4     2     3 ar  
     5     2     7 1   
     6     3     4 ar  
     7     3    20 1   
     8     4     5 ar  
     9     4     8 1   
    10     5     6 ar  
    11     5     9 1   
    12     6    21 1   
    13     7    22 1   
    14     9    10 1   
    15     9    14 2   
    16    10    11 1   
    17    10    23 1   
    18    10    24 1   
    19    11    12 1   
    20    11    15 1   
    21    11    25 1   
    22    12    13 1   
    23    12    17 1   
    24    12    26 1   
    25    13    14 1   
    26    13    27 1   
    27    13    28 1   
    28    14    29 1   
    29    15    16 1   
    30    15    30 1   
    31    15    31 1   
    32    16    17 1   
    33    16    32 1   
    34    16    33 1   
    35    17    18 1   
    36    17    34 1   
    37    18    35 1   
@<TRIPOS>SUBSTRUCTURE
     1 6WR         1 TEMP              0 ****  ****    0 ROOT
