@<TRIPOS>MOLECULE
6WS
   26    27     1     0     0
SMALL
No Charge or Current Charge


@<TRIPOS>ATOM
      1 Cl1         -5.0480     2.4050     0.0760 cl         1 6WS      -0.198000
      2 C02         -3.5870     1.4260     0.0530 ca         1 6WS       0.128000
      3 C03         -3.3770     0.4560     1.0460 ca         1 6WS      -0.106000
      4 C04         -2.2080    -0.3260     1.0290 ca         1 6WS      -0.078250
      5 C05         -1.2470    -0.1460     0.0130 ca         1 6WS      -0.060800
      6 C06          0.0090    -0.9550    -0.0070 ce         1 6WS       0.008600
      7 C07          1.2680    -0.1520    -0.0310 ca         1 6WS      -0.060800
      8 C08          1.4860     0.8370     0.9500 ca         1 6WS      -0.078250
      9 C09          2.6580     1.6130     0.9280 ca         1 6WS      -0.106000
     10 C10          3.6150     1.4100    -0.0790 ca         1 6WS       0.128000
     11 Cl2          5.0810     2.3820    -0.1070 cl         1 6WS      -0.198000
     12 C12          3.4010     0.4360    -1.0670 ca         1 6WS      -0.106000
     13 C13          2.2290    -0.3410    -1.0460 ca         1 6WS      -0.078250
     14 C14          0.0060    -2.3140    -0.0030 c2         1 6WS       0.247000
     15 Cl3          1.4520    -3.2960     0.0310 cl         1 6WS      -0.144500
     16 Cl4         -1.4440    -3.2900    -0.0320 cl         1 6WS      -0.144500
     17 C17         -1.4600     0.8390    -0.9730 ca         1 6WS      -0.078250
     18 C18         -2.6290     1.6200    -0.9550 ca         1 6WS      -0.106000
     19 H1          -4.1170     0.3140     1.8290 ha         1 6WS       0.133000
     20 H2          -2.0480    -1.0640     1.8110 ha         1 6WS       0.125000
     21 H3           0.7470     1.0010     1.7320 ha         1 6WS       0.125000
     22 H4           2.8240     2.3710     1.6890 ha         1 6WS       0.133000
     23 H5           4.1400     0.2860    -1.8500 ha         1 6WS       0.133000
     24 H6           2.0650    -1.0830    -1.8240 ha         1 6WS       0.125000
     25 H7          -0.7210     0.9960    -1.7550 ha         1 6WS       0.125000
     26 H8          -2.7910     2.3750    -1.7200 ha         1 6WS       0.133000
@<TRIPOS>BOND
     1     1     2 1   
     2     2     3 ar  
     3     2    18 ar  
     4     3     4 ar  
     5     3    19 1   
     6     4     5 ar  
     7     4    20 1   
     8     5     6 1   
     9     5    17 ar  
    10     6     7 1   
    11     6    14 2   
    12     7     8 ar  
    13     7    13 ar  
    14     8     9 ar  
    15     8    21 1   
    16     9    10 ar  
    17     9    22 1   
    18    10    11 1   
    19    10    12 ar  
    20    12    13 ar  
    21    12    23 1   
    22    13    24 1   
    23    14    15 1   
    24    14    16 1   
    25    17    18 ar  
    26    17    25 1   
    27    18    26 1   
@<TRIPOS>SUBSTRUCTURE
     1 6WS         1 TEMP              0 ****  ****    0 ROOT
