@<TRIPOS>MOLECULE
6WS
   26    27     1     0     0
SMALL
bcc


@<TRIPOS>ATOM
      1 CL1         -4.9820     2.3690     0.0510 cl         1 6WS      -0.106400
      2 C02         -3.5440     1.4040     0.0370 ca         1 6WS       0.036400
      3 C03         -3.3320     0.4840     1.0520 ca         1 6WS      -0.124000
      4 C04         -2.1820    -0.2890     1.0320 ca         1 6WS      -0.096250
      5 C05         -1.2440    -0.1470     0.0130 ca         1 6WS      -0.060800
      6 C06          0.0090    -0.9350    -0.0060 ce         1 6WS       0.008600
      7 C07          1.2660    -0.1530    -0.0290 ca         1 6WS      -0.060800
      8 C08          1.4990     0.7950     0.9640 ca         1 6WS      -0.096250
      9 C09          2.6530     1.5620     0.9590 ca         1 6WS      -0.124000
     10 C10          3.5720     1.3870    -0.0650 ca         1 6WS       0.036400
     11 CL2          5.0140     2.3470    -0.0860 cl         1 6WS      -0.106400
     12 C12          3.3540     0.4650    -1.0750 ca         1 6WS      -0.124000
     13 C13          2.2000    -0.3040    -1.0510 ca         1 6WS      -0.096250
     14 C14          0.0060    -2.2700    -0.0020 c2         1 6WS       0.095800
     15 CL3          1.4360    -3.2200     0.0890 cl         1 6WS      -0.068900
     16 CL4         -1.4270    -3.2150    -0.0880 cl         1 6WS      -0.068900
     17 C17         -1.4720     0.7990    -0.9850 ca         1 6WS      -0.096250
     18 C18         -2.6220     1.5700    -0.9850 ca         1 6WS      -0.124000
     19 H1          -4.0500     0.3710     1.8520 ha         1 6WS       0.151000
     20 H2          -2.0130    -0.9990     1.8310 ha         1 6WS       0.143000
     21 H3           0.7770     0.9360     1.7580 ha         1 6WS       0.143000
     22 H4           2.8290     2.2870     1.7410 ha         1 6WS       0.151000
     23 H5           4.0700     0.3450    -1.8770 ha         1 6WS       0.151000
     24 H6           2.0270    -1.0160    -1.8460 ha         1 6WS       0.143000
     25 H7          -0.7470     0.9330    -1.7780 ha         1 6WS       0.143000
     26 H8          -2.7930     2.2930    -1.7710 ha         1 6WS       0.151000
@<TRIPOS>BOND
     1     1     2 1   
     2     2     3 ar  
     3     2    18 ar  
     4     3     4 ar  
     5     3    19 1   
     6     4     5 ar  
     7     4    20 1   
     8     5     6 1   
     9     5    17 ar  
    10     6     7 1   
    11     6    14 2   
    12     7     8 ar  
    13     7    13 ar  
    14     8     9 ar  
    15     8    21 1   
    16     9    10 ar  
    17     9    22 1   
    18    10    11 1   
    19    10    12 ar  
    20    12    13 ar  
    21    12    23 1   
    22    13    24 1   
    23    14    15 1   
    24    14    16 1   
    25    17    18 ar  
    26    17    25 1   
    27    18    26 1   
@<TRIPOS>SUBSTRUCTURE
     1 6WS         1 TEMP              0 ****  ****    0 ROOT
