@<TRIPOS>MOLECULE
6WT
   28    29     1     0     0
SMALL
abcg2


@<TRIPOS>ATOM
      1 C01          1.3280     0.7890     0.7780 ca         1 6WT      -0.082500
      2 C02          2.4670     1.5180     1.0790 ca         1 6WT      -0.104250
      3 C03          3.5150     1.5460     0.1730 ca         1 6WT       0.128000
      4 CL1          4.9380     2.4590     0.5400 cl         1 6WT      -0.194500
      5 C04          3.4320     0.8620    -1.0280 ca         1 6WT      -0.104250
      6 C05          2.2870     0.1350    -1.3120 ca         1 6WT      -0.082500
      7 C06          1.2240     0.0800    -0.4150 ca         1 6WT      -0.087300
      8 C07         -0.0130    -0.7200    -0.7680 c3         1 6WT       0.036900
      9 C08          0.0360    -2.1580    -0.2110 c3         1 6WT       0.497000
     10 CL5          0.2870    -2.2330     1.5400 cl         1 6WT      -0.193667
     11 CL3         -1.4630    -3.0100    -0.6150 cl         1 6WT      -0.193667
     12 CL4          1.3850    -3.0280    -0.9730 cl         1 6WT      -0.193667
     13 C09         -1.2880     0.0540    -0.4980 ca         1 6WT      -0.087300
     14 C10         -1.7650     0.8500    -1.5360 ca         1 6WT      -0.082500
     15 C11         -2.8890     1.6430    -1.3880 ca         1 6WT      -0.104250
     16 C12         -3.5600     1.6410    -0.1760 ca         1 6WT       0.128000
     17 CL2         -4.9680     2.6200     0.0280 cl         1 6WT      -0.194500
     18 C13         -3.1100     0.8570     0.8720 ca         1 6WT      -0.104250
     19 C14         -1.9800     0.0700     0.7090 ca         1 6WT      -0.082500
     20 H1           0.5130     0.7990     1.4880 ha         1 6WT       0.122750
     21 H2           2.5290     2.0640     2.0100 ha         1 6WT       0.132000
     22 H3           4.2440     0.8960    -1.7400 ha         1 6WT       0.132000
     23 H4           2.2310    -0.3910    -2.2560 ha         1 6WT       0.122750
     24 H5           0.0100    -0.8840    -1.8500 hc         1 6WT       0.082700
     25 H6          -1.2500     0.8590    -2.4880 ha         1 6WT       0.122750
     26 H7          -3.2370     2.2520    -2.2100 ha         1 6WT       0.132000
     27 H8          -3.6370     0.8550     1.8170 ha         1 6WT       0.132000
     28 H9          -1.6610    -0.5330     1.5460 ha         1 6WT       0.122750
@<TRIPOS>BOND
     1     1     2 ar  
     2     1     7 ar  
     3     1    20 1   
     4     2     3 ar  
     5     2    21 1   
     6     3     4 1   
     7     3     5 ar  
     8     5     6 ar  
     9     5    22 1   
    10     6     7 ar  
    11     6    23 1   
    12     7     8 1   
    13     8     9 1   
    14     8    13 1   
    15     8    24 1   
    16     9    10 1   
    17     9    11 1   
    18     9    12 1   
    19    13    14 ar  
    20    13    19 ar  
    21    14    15 ar  
    22    14    25 1   
    23    15    16 ar  
    24    15    26 1   
    25    16    17 1   
    26    16    18 ar  
    27    18    19 ar  
    28    18    27 1   
    29    19    28 1   
@<TRIPOS>SUBSTRUCTURE
     1 6WT         1 TEMP              0 ****  ****    0 ROOT
