@<TRIPOS>MOLECULE
6WT
   28    29     1     0     0
SMALL
No Charge or Current Charge


@<TRIPOS>ATOM
      1 C01          1.3230     0.8250     0.7420 ca         1 6WT      -0.082500
      2 C02          2.4670     1.5990     1.0050 ca         1 6WT      -0.104250
      3 C03          3.5280     1.6160     0.0880 ca         1 6WT       0.128000
      4 Cl1          4.9580     2.5860     0.4180 cl         1 6WT      -0.194500
      5 C04          3.4480     0.8630    -1.0930 ca         1 6WT      -0.104250
      6 C05          2.3050     0.0890    -1.3580 ca         1 6WT      -0.082500
      7 C06          1.2340     0.0560    -0.4400 ca         1 6WT      -0.087300
      8 C07         -0.0160    -0.7860    -0.7410 c3         1 6WT       0.036900
      9 C08          0.0490    -2.2210    -0.1130 c3         1 6WT       0.497000
     10 Cl5          0.3790    -2.2140     1.6790 cl         1 6WT      -0.193667
     11 Cl3         -1.4880    -3.1460    -0.4190 cl         1 6WT      -0.193667
     12 Cl4          1.3930    -3.1740    -0.8830 cl         1 6WT      -0.193667
     13 C09         -1.2940     0.0470    -0.5000 ca         1 6WT      -0.087300
     14 C10         -1.6420     1.0160    -1.4670 ca         1 6WT      -0.082500
     15 C11         -2.7830     1.8210    -1.3050 ca         1 6WT      -0.104250
     16 C12         -3.5900     1.6710    -0.1690 ca         1 6WT       0.128000
     17 Cl2         -5.0170     2.6780     0.0360 cl         1 6WT      -0.194500
     18 C13         -3.2560     0.7200     0.8060 ca         1 6WT      -0.104250
     19 C14         -2.1150    -0.0860     0.6460 ca         1 6WT      -0.082500
     20 H1           0.5080     0.8240     1.4630 ha         1 6WT       0.122750
     21 H2           2.5290     2.1850     1.9180 ha         1 6WT       0.132000
     22 H3           4.2710     0.8810    -1.8040 ha         1 6WT       0.132000
     23 H4           2.2580    -0.4880    -2.2800 ha         1 6WT       0.122750
     24 H5          -0.0140    -0.9870    -1.8200 hc         1 6WT       0.082700
     25 H6          -1.0210     1.1500    -2.3510 ha         1 6WT       0.122750
     26 H7          -3.0390     2.5620    -2.0580 ha         1 6WT       0.132000
     27 H8          -3.8810     0.6090     1.6880 ha         1 6WT       0.132000
     28 H9          -1.8880    -0.8050     1.4250 ha         1 6WT       0.122750
@<TRIPOS>BOND
     1     1     2 ar  
     2     1     7 ar  
     3     1    20 1   
     4     2     3 ar  
     5     2    21 1   
     6     3     4 1   
     7     3     5 ar  
     8     5     6 ar  
     9     5    22 1   
    10     6     7 ar  
    11     6    23 1   
    12     7     8 1   
    13     8     9 1   
    14     8    13 1   
    15     8    24 1   
    16     9    10 1   
    17     9    11 1   
    18     9    12 1   
    19    13    14 ar  
    20    13    19 ar  
    21    14    15 ar  
    22    14    25 1   
    23    15    16 ar  
    24    15    26 1   
    25    16    17 1   
    26    16    18 ar  
    27    18    19 ar  
    28    18    27 1   
    29    19    28 1   
@<TRIPOS>SUBSTRUCTURE
     1 6WT         1 TEMP              0 ****  ****    0 ROOT
