@<TRIPOS>MOLECULE
6WU
   38    40     1     0     0
SMALL
abcg2


@<TRIPOS>ATOM
      1 C01          3.5020     1.3230     0.3090 ca         1 6WU      -0.177000
      2 C02          2.1210     1.3060     0.3580 ca         1 6WU       0.203000
      3 C03          3.4410    -0.9810    -0.2730 ca         1 6WU       0.052000
      4 C04          4.1920     0.1610    -0.0100 ca         1 6WU       0.138100
      5 C05          1.3570     0.1730     0.1070 ca         1 6WU      -0.094800
      6 C06          2.0680    -0.9830    -0.2260 ca         1 6WU      -0.077000
      7 O01          5.5330     0.1900    -0.0540 oh         1 6WU      -0.520100
      8 F01          1.5060     2.4620     0.6480 f          1 6WU      -0.169000
      9 C07         -0.1210     0.1670     0.1590 ce         1 6WU      -0.071400
     10 C08         -0.8410    -0.3420    -1.0600 c6         1 6WU      -0.023200
     11 C09         -2.3170    -0.6200    -0.8220 c5         1 6WU      -0.057700
     12 C10         -3.0180     0.4480     0.0300 c5         1 6WU      -0.037000
     13 C11         -2.2690     0.6190     1.3600 c6         1 6WU      -0.039200
     14 C12         -0.7810     0.6070     1.2310 c2         1 6WU      -0.182200
     15 C13         -2.6280    -1.9250    -0.0820 c5         1 6WU      -0.071400
     16 C14         -4.0110    -1.7000     0.5650 c5         1 6WU      -0.114400
     17 C15         -4.3690    -0.2170     0.3280 c5         1 6WU       0.169300
     18 C16         -3.1230     1.7940    -0.6750 c3         1 6WU      -0.070100
     19 O02         -5.2130    -0.0460    -0.7920 oh         1 6WU      -0.656000
     20 F02          4.1040    -2.1140    -0.5810 f          1 6WU      -0.185000
     21 H1           4.0450     2.2370     0.5120 ha         1 6WU       0.151000
     22 H2           1.5420    -1.9050    -0.4380 ha         1 6WU       0.137000
     23 H3           5.8910    -0.6640    -0.3220 ho         1 6WU       0.481000
     24 H4          -0.7240     0.3970    -1.8620 hc         1 6WU       0.050700
     25 H5          -0.3540    -1.2480    -1.4350 hc         1 6WU       0.050700
     26 H6          -2.8130    -0.6520    -1.7970 hc         1 6WU       0.065700
     27 H7          -2.5850     1.5560     1.8300 hc         1 6WU       0.050700
     28 H8          -2.5490    -0.1580     2.0810 hc         1 6WU       0.050700
     29 H9          -0.2250     0.9490     2.0990 ha         1 6WU       0.177000
     30 H10         -2.6150    -2.7820    -0.7570 hc         1 6WU       0.044200
     31 H11         -1.8720    -2.1160     0.6830 hc         1 6WU       0.044200
     32 H12         -4.7770    -2.3480     0.1310 hc         1 6WU       0.044200
     33 H13         -3.9900    -1.9300     1.6310 hc         1 6WU       0.044200
     34 H14         -4.8340     0.2270     1.2210 h1         1 6WU       0.035700
     35 H15         -3.5410     1.7000    -1.6770 hc         1 6WU       0.039367
     36 H16         -3.7490     2.4890    -0.1110 hc         1 6WU       0.039367
     37 H17         -2.1370     2.2550    -0.7730 hc         1 6WU       0.039367
     38 H18         -6.0130    -0.5560    -0.6420 ho         1 6WU       0.440000
@<TRIPOS>BOND
     1     1     2 ar  
     2     1     4 ar  
     3     1    21 1   
     4     2     5 ar  
     5     2     8 1   
     6     3     4 ar  
     7     3     6 ar  
     8     3    20 1   
     9     4     7 1   
    10     5     6 ar  
    11     5     9 1   
    12     6    22 1   
    13     7    23 1   
    14     9    10 1   
    15     9    14 2   
    16    10    11 1   
    17    10    24 1   
    18    10    25 1   
    19    11    12 1   
    20    11    15 1   
    21    11    26 1   
    22    12    13 1   
    23    12    17 1   
    24    12    18 1   
    25    13    14 1   
    26    13    27 1   
    27    13    28 1   
    28    14    29 1   
    29    15    16 1   
    30    15    30 1   
    31    15    31 1   
    32    16    17 1   
    33    16    32 1   
    34    16    33 1   
    35    17    19 1   
    36    17    34 1   
    37    18    35 1   
    38    18    36 1   
    39    18    37 1   
    40    19    38 1   
@<TRIPOS>SUBSTRUCTURE
     1 6WU         1 TEMP              0 ****  ****    0 ROOT
