@<TRIPOS>MOLECULE
6WU
   38    40     1     0     0
SMALL
No Charge or Current Charge


@<TRIPOS>ATOM
      1 C01          3.5220     1.3940     0.1430 ca         1 6WU      -0.177000
      2 C02          2.1200     1.3840     0.2160 ca         1 6WU       0.203000
      3 C03          3.5110    -1.0160    -0.1790 ca         1 6WU       0.052000
      4 C04          4.2220     0.1950    -0.0540 ca         1 6WU       0.138100
      5 C05          1.4000     0.1750     0.0920 ca         1 6WU      -0.094800
      6 C06          2.1080    -1.0270    -0.1070 ca         1 6WU      -0.077000
      7 O01          5.5860     0.2160    -0.1240 oh         1 6WU      -0.520100
      8 F01          1.4660     2.5540     0.3950 f          1 6WU      -0.169000
      9 C07         -0.0870     0.1560     0.1690 ce         1 6WU      -0.071400
     10 C08         -0.8370    -0.3420    -1.0790 c6         1 6WU      -0.023200
     11 C09         -2.3430    -0.6120    -0.8290 c5         1 6WU      -0.057700
     12 C10         -3.0210     0.4440     0.0950 c5         1 6WU      -0.037000
     13 C11         -2.2510     0.5880     1.4510 c6         1 6WU      -0.039200
     14 C12         -0.7350     0.5870     1.2790 c2         1 6WU      -0.182200
     15 C13         -2.6570    -1.9490    -0.0950 c5         1 6WU      -0.071400
     16 C14         -4.0970    -1.7410     0.4820 c5         1 6WU      -0.114400
     17 C15         -4.4340    -0.2280     0.2570 c5         1 6WU       0.169300
     18 C16         -3.0830     1.8590    -0.5570 c3         1 6WU      -0.070100
     19 O02         -5.2730    -0.0660    -0.8900 oh         1 6WU      -0.656000
     20 F02          4.1770    -2.1800    -0.3670 f          1 6WU      -0.185000
     21 H1           4.0620     2.3310     0.2380 ha         1 6WU       0.151000
     22 H2           1.5740    -1.9700    -0.1960 ha         1 6WU       0.137000
     23 H3           5.8960    -0.7060    -0.2630 ho         1 6WU       0.481000
     24 H4          -0.7360     0.4180    -1.8650 hc         1 6WU       0.050700
     25 H5          -0.3660    -1.2500    -1.4780 hc         1 6WU       0.050700
     26 H6          -2.8010    -0.6220    -1.8260 hc         1 6WU       0.065700
     27 H7          -2.5640     1.5050     1.9700 hc         1 6WU       0.050700
     28 H8          -2.5130    -0.2280     2.1380 hc         1 6WU       0.050700
     29 H9          -0.1660     0.9440     2.1380 ha         1 6WU       0.177000
     30 H10         -2.6080    -2.8060    -0.7760 hc         1 6WU       0.044200
     31 H11         -1.9390    -2.1490     0.7090 hc         1 6WU       0.044200
     32 H12         -4.8250    -2.4000    -0.0050 hc         1 6WU       0.044200
     33 H13         -4.1230    -1.9940     1.5480 hc         1 6WU       0.044200
     34 H14         -4.9520     0.1830     1.1350 h1         1 6WU       0.035700
     35 H15         -3.5020     1.8210    -1.5690 hc         1 6WU       0.039367
     36 H16         -3.7080     2.5390     0.0340 hc         1 6WU       0.039367
     37 H17         -2.0870     2.3110    -0.6370 hc         1 6WU       0.039367
     38 H18         -6.1080    -0.5460    -0.6990 ho         1 6WU       0.440000
@<TRIPOS>BOND
     1     1     2 ar  
     2     1     4 ar  
     3     1    21 1   
     4     2     5 ar  
     5     2     8 1   
     6     3     4 ar  
     7     3     6 ar  
     8     3    20 1   
     9     4     7 1   
    10     5     6 ar  
    11     5     9 1   
    12     6    22 1   
    13     7    23 1   
    14     9    10 1   
    15     9    14 2   
    16    10    11 1   
    17    10    24 1   
    18    10    25 1   
    19    11    12 1   
    20    11    15 1   
    21    11    26 1   
    22    12    13 1   
    23    12    17 1   
    24    12    18 1   
    25    13    14 1   
    26    13    27 1   
    27    13    28 1   
    28    14    29 1   
    29    15    16 1   
    30    15    30 1   
    31    15    31 1   
    32    16    17 1   
    33    16    32 1   
    34    16    33 1   
    35    17    19 1   
    36    17    34 1   
    37    18    35 1   
    38    18    36 1   
    39    18    37 1   
    40    19    38 1   
@<TRIPOS>SUBSTRUCTURE
     1 6WU         1 TEMP              0 ****  ****    0 ROOT
