@<TRIPOS>MOLECULE
6WV
   55    59     1     0     0
SMALL
No Charge or Current Charge


@<TRIPOS>ATOM
      1 C01         -0.8450    -0.7100     1.8740 c3         1 6WV      -0.085100
      2 C02         -0.9400    -0.3410     0.3420 c5         1 6WV      -0.048000
      3 C03         -0.3320    -1.5090    -0.4860 c6         1 6WV      -0.060400
      4 C04          1.2150    -1.6080    -0.3120 c6         1 6WV      -0.069400
      5 C05          1.9480    -0.2600    -0.6350 c6         1 6WV      -0.005400
      6 C06          3.4920    -0.3070    -0.4910 ca         1 6WV      -0.101300
      7 C07          4.2150    -1.4850    -0.7960 ca         1 6WV      -0.069000
      8 C08          5.6160    -1.5190    -0.6890 ca         1 6WV      -0.206000
      9 C09          6.3160    -0.3770    -0.2870 ca         1 6WV       0.138100
     10 O01          7.6740    -0.4070    -0.1820 oh         1 6WV      -0.535100
     11 C10          5.6200     0.8030    -0.0020 ca         1 6WV      -0.150000
     12 C11          4.2170     0.8550    -0.1090 ca         1 6WV      -0.035300
     13 C12          3.5210     2.1810     0.2210 c6         1 6WV      -0.033100
     14 C13          2.0380     2.2390    -0.1970 c6         1 6WV      -0.069400
     15 C14          1.3280     0.9210     0.1840 c6         1 6WV      -0.046700
     16 C15         -0.2070     0.9760    -0.0630 c5         1 6WV      -0.063700
     17 C16         -1.0480     2.0670     0.6660 c5         1 6WV      -0.068400
     18 C17         -2.5180     1.5290     0.5470 c5         1 6WV      -0.109400
     19 C18         -2.3610     0.1260    -0.1420 c5         1 6WV       0.219500
     20 N01         -3.3690    -0.7690     0.4930 nu         1 6WV      -0.940200
     21 C19         -4.6590    -0.5040     0.0330 ca         1 6WV       0.314000
     22 C20         -5.6450    -0.1010     0.9470 ca         1 6WV      -0.185500
     23 C21         -6.9550     0.1650     0.5090 ca         1 6WV      -0.069000
     24 C22         -7.2810     0.0180    -0.8500 ca         1 6WV      -0.162000
     25 C23         -6.3020    -0.3990    -1.7680 ca         1 6WV      -0.069000
     26 C24         -4.9940    -0.6620    -1.3240 ca         1 6WV      -0.185500
     27 H01         -1.3280    -1.6730     2.0790 hc         1 6WV       0.035367
     28 H03          0.1890    -0.8040     2.2190 hc         1 6WV       0.035367
     29 H02         -1.3240     0.0290     2.5240 hc         1 6WV       0.035367
     30 H05         -0.8050    -2.4610    -0.2080 hc         1 6WV       0.046700
     31 H04         -0.5590    -1.3610    -1.5510 hc         1 6WV       0.046700
     32 H06          1.4700    -1.9400     0.7030 hc         1 6WV       0.042200
     33 H07          1.5620    -2.4010    -0.9850 hc         1 6WV       0.042200
     34 H08          1.7550    -0.0530    -1.6980 hc         1 6WV       0.052700
     35 H09          3.7080    -2.3850    -1.1270 ha         1 6WV       0.110000
     36 H10          6.1470    -2.4380    -0.9240 ha         1 6WV       0.112000
     37 H11          7.9800    -1.3080    -0.4210 ho         1 6WV       0.463000
     38 H12          6.1740     1.6880     0.3040 ha         1 6WV       0.125000
     39 H14          3.5920     2.3500     1.3050 hc         1 6WV       0.050700
     40 H13          4.0610     3.0150    -0.2490 hc         1 6WV       0.050700
     41 H15          1.5590     3.0980     0.2900 hc         1 6WV       0.043700
     42 H16          1.9610     2.4080    -1.2800 hc         1 6WV       0.043700
     43 H17          1.5070     0.7460     1.2530 hc         1 6WV       0.056700
     44 H18         -0.2910     1.1400    -1.1460 hc         1 6WV       0.046700
     45 H20         -0.7460     2.1820     1.7130 hc         1 6WV       0.044200
     46 H19         -0.9350     3.0500     0.1950 hc         1 6WV       0.044200
     47 H21         -2.9800     1.4750     1.5400 hc         1 6WV       0.048200
     48 H22         -3.1480     2.1920    -0.0550 hc         1 6WV       0.048200
     49 H23         -2.4220     0.1860    -1.2390 h1         1 6WV       0.061700
     50 H24         -3.3150    -0.8820     1.5030 hn         1 6WV       0.463000
     51 H25         -5.3970     0.0150     1.9990 ha         1 6WV       0.109000
     52 H26         -7.7140     0.4830     1.2210 ha         1 6WV       0.106500
     53 H27         -8.2930     0.2220    -1.1900 ha         1 6WV       0.112000
     54 H28         -6.5570    -0.5200    -2.8180 ha         1 6WV       0.106500
     55 H29         -4.2450    -0.9970    -2.0350 ha         1 6WV       0.109000
@<TRIPOS>BOND
     1     1     2 1   
     2     1    27 1   
     3     1    28 1   
     4     1    29 1   
     5     2     3 1   
     6     2    16 1   
     7     2    19 1   
     8     3     4 1   
     9     3    30 1   
    10     3    31 1   
    11     4     5 1   
    12     4    32 1   
    13     4    33 1   
    14     5     6 1   
    15     5    15 1   
    16     5    34 1   
    17     6     7 ar  
    18     6    12 ar  
    19     7     8 ar  
    20     7    35 1   
    21     8     9 ar  
    22     8    36 1   
    23     9    10 1   
    24     9    11 ar  
    25    10    37 1   
    26    11    12 ar  
    27    11    38 1   
    28    12    13 1   
    29    13    14 1   
    30    13    39 1   
    31    13    40 1   
    32    14    15 1   
    33    14    41 1   
    34    14    42 1   
    35    15    16 1   
    36    15    43 1   
    37    16    17 1   
    38    16    44 1   
    39    17    18 1   
    40    17    45 1   
    41    17    46 1   
    42    18    19 1   
    43    18    47 1   
    44    18    48 1   
    45    19    20 1   
    46    19    49 1   
    47    20    21 1   
    48    20    50 1   
    49    21    22 ar  
    50    21    26 ar  
    51    22    23 ar  
    52    22    51 1   
    53    23    24 ar  
    54    23    52 1   
    55    24    25 ar  
    56    24    53 1   
    57    25    26 ar  
    58    25    54 1   
    59    26    55 1   
@<TRIPOS>SUBSTRUCTURE
     1 6WV         1 TEMP              0 ****  ****    0 ROOT
