@<TRIPOS>MOLECULE
6WV
   55    59     1     0     0
SMALL
bcc


@<TRIPOS>ATOM
      1 C01         -0.7800    -0.2760     1.8590 c3         1 6WV      -0.085100
      2 C02         -0.8940    -0.1280     0.3360 c5         1 6WV      -0.048000
      3 C03         -0.3690    -1.3810    -0.3540 c6         1 6WV      -0.060400
      4 C04          1.1450    -1.5270    -0.1770 c6         1 6WV      -0.069400
      5 C05          1.9150    -0.2690    -0.6020 c6         1 6WV      -0.005400
      6 C06          3.4180    -0.3830    -0.4240 ca         1 6WV      -0.101300
      7 C07          4.0730    -1.6070    -0.5520 ca         1 6WV      -0.087000
      8 C08          5.4470    -1.7330    -0.4260 ca         1 6WV      -0.224000
      9 C09          6.2160    -0.6040    -0.1650 ca         1 6WV       0.138100
     10 O01          7.5600    -0.6480    -0.0290 oh         1 6WV      -0.496100
     11 C10          5.5850     0.6260    -0.0410 ca         1 6WV      -0.168000
     12 C11          4.2040     0.7490    -0.1680 ca         1 6WV      -0.035300
     13 C12          3.5970     2.1190     0.0100 c6         1 6WV      -0.033100
     14 C13          2.1460     2.2030    -0.4340 c6         1 6WV      -0.069400
     15 C14          1.3690     1.0000     0.0760 c6         1 6WV      -0.046700
     16 C15         -0.1210     1.0850    -0.1970 c5         1 6WV      -0.063700
     17 C16         -0.9160     2.2900     0.3110 c5         1 6WV      -0.068400
     18 C17         -2.3800     1.7920     0.3330 c5         1 6WV      -0.109400
     19 C18         -2.3180     0.2920    -0.0550 c5         1 6WV       0.219500
     20 N01         -3.3500    -0.5510     0.4920 nu         1 6WV      -0.746600
     21 C19         -4.6640    -0.4730     0.0930 ca         1 6WV       0.175600
     22 C20         -5.6560    -1.0910     0.8730 ca         1 6WV      -0.203500
     23 C21         -6.9830    -1.0750     0.4830 ca         1 6WV      -0.087000
     24 C22         -7.3730    -0.4470    -0.6960 ca         1 6WV      -0.180000
     25 C23         -6.4000     0.1680    -1.4700 ca         1 6WV      -0.087000
     26 C24         -5.0650     0.1660    -1.0890 ca         1 6WV      -0.203500
     27 H01         -1.3370    -1.1500     2.2040 hc         1 6WV       0.035367
     28 H03          0.2470    -0.4270     2.1840 hc         1 6WV       0.035367
     29 H02         -1.1590     0.5930     2.3980 hc         1 6WV       0.035367
     30 H05         -0.8730    -2.2770     0.0210 hc         1 6WV       0.046700
     31 H04         -0.6000    -1.3190    -1.4240 hc         1 6WV       0.046700
     32 H06          1.3890    -1.7720     0.8600 hc         1 6WV       0.042200
     33 H07          1.4720    -2.3830    -0.7710 hc         1 6WV       0.042200
     34 H08          1.7230    -0.1330    -1.6780 hc         1 6WV       0.052700
     35 H09          3.5050    -2.5040    -0.7620 ha         1 6WV       0.128000
     36 H10          5.9130    -2.7070    -0.5320 ha         1 6WV       0.130000
     37 H11          7.8740    -1.5520    -0.1420 ho         1 6WV       0.424000
     38 H12          6.1820     1.5100     0.1590 ha         1 6WV       0.143000
     39 H14          3.6620     2.3870     1.0700 hc         1 6WV       0.050700
     40 H13          4.2030     2.8580    -0.5200 hc         1 6WV       0.050700
     41 H15          1.7100     3.1350    -0.0660 hc         1 6WV       0.043700
     42 H16          2.0800     2.2380    -1.5280 hc         1 6WV       0.043700
     43 H17          1.5340     0.9290     1.1600 hc         1 6WV       0.056700
     44 H18         -0.2350     1.0630    -1.2920 hc         1 6WV       0.046700
     45 H20         -0.5850     2.5820     1.3110 hc         1 6WV       0.044200
     46 H19         -0.7860     3.1630    -0.3300 hc         1 6WV       0.044200
     47 H21         -2.8200     1.9040     1.3270 hc         1 6WV       0.048200
     48 H22         -3.0160     2.3510    -0.3540 hc         1 6WV       0.048200
     49 H23         -2.3750     0.2120    -1.1450 h1         1 6WV       0.061700
     50 H24         -3.2370    -0.7780     1.4680 hn         1 6WV       0.407800
     51 H25         -5.3730    -1.5860     1.7950 ha         1 6WV       0.127000
     52 H26         -7.7210    -1.5600     1.1100 ha         1 6WV       0.124500
     53 H27         -8.4120    -0.4350    -0.9990 ha         1 6WV       0.130000
     54 H28         -6.6790     0.6690    -2.3890 ha         1 6WV       0.124500
     55 H29         -4.3420     0.6690    -1.7170 ha         1 6WV       0.127000
@<TRIPOS>BOND
     1     1     2 1   
     2     1    27 1   
     3     1    28 1   
     4     1    29 1   
     5     2     3 1   
     6     2    16 1   
     7     2    19 1   
     8     3     4 1   
     9     3    30 1   
    10     3    31 1   
    11     4     5 1   
    12     4    32 1   
    13     4    33 1   
    14     5     6 1   
    15     5    15 1   
    16     5    34 1   
    17     6     7 ar  
    18     6    12 ar  
    19     7     8 ar  
    20     7    35 1   
    21     8     9 ar  
    22     8    36 1   
    23     9    10 1   
    24     9    11 ar  
    25    10    37 1   
    26    11    12 ar  
    27    11    38 1   
    28    12    13 1   
    29    13    14 1   
    30    13    39 1   
    31    13    40 1   
    32    14    15 1   
    33    14    41 1   
    34    14    42 1   
    35    15    16 1   
    36    15    43 1   
    37    16    17 1   
    38    16    44 1   
    39    17    18 1   
    40    17    45 1   
    41    17    46 1   
    42    18    19 1   
    43    18    47 1   
    44    18    48 1   
    45    19    20 1   
    46    19    49 1   
    47    20    21 1   
    48    20    50 1   
    49    21    22 ar  
    50    21    26 ar  
    51    22    23 ar  
    52    22    51 1   
    53    23    24 ar  
    54    23    52 1   
    55    24    25 ar  
    56    24    53 1   
    57    25    26 ar  
    58    25    54 1   
    59    26    55 1   
@<TRIPOS>SUBSTRUCTURE
     1 6WV         1 TEMP              0 ****  ****    0 ROOT
