@<TRIPOS>MOLECULE
6WW
   58    62     1     0     0
SMALL
abcg2


@<TRIPOS>ATOM
      1 C01          5.1170    -2.0940     0.0430 ca         1 6WW      -0.206000
      2 C02          6.0480    -1.0620    -0.0140 ca         1 6WW       0.138100
      3 C03          5.6030     0.2370    -0.2180 ca         1 6WW      -0.150000
      4 C04          4.2480     0.5240    -0.3620 ca         1 6WW      -0.035300
      5 C05          3.3000    -0.5070    -0.3060 ca         1 6WW      -0.101300
      6 C06          3.7700    -1.8040    -0.1040 ca         1 6WW      -0.069000
      7 C07          3.8480     1.9680    -0.5430 c6         1 6WW      -0.033100
      8 C08          2.4000     2.1530    -0.9710 c6         1 6WW      -0.069400
      9 C09          1.4890     1.2420    -0.1620 c6         1 6WW      -0.046700
     10 C10          1.8210    -0.2220    -0.5010 c6         1 6WW      -0.005400
     11 C11          0.0120     1.4740    -0.4320 c5         1 6WW      -0.064700
     12 C12         -0.8970     0.5610     0.4020 c5         1 6WW      -0.057000
     13 C13         -0.5820    -0.8850     0.0340 c6         1 6WW      -0.061400
     14 C14          0.9020    -1.2070     0.2320 c6         1 6WW      -0.069400
     15 C15         -0.5790     2.8700    -0.2340 c5         1 6WW      -0.069400
     16 C16         -2.0990     2.6250    -0.0930 c5         1 6WW      -0.093400
     17 C17         -2.2710     1.0840    -0.0670 c5         1 6WW       0.247500
     18 N01         -3.4570     0.5960     0.6150 nh         1 6WW      -0.826400
     19 C18         -0.7160     0.7710     1.9060 c3         1 6WW      -0.079100
     20 C19         -3.8920     1.2300     1.8390 c3         1 6WW       0.214100
     21 C20         -4.3040    -0.3180     0.0300 ca         1 6WW       0.344000
     22 O01          7.3770    -1.2660     0.1200 oh         1 6WW      -0.536100
     23 H1           5.4360    -3.1180     0.2030 ha         1 6WW       0.112000
     24 H2           6.3270     1.0430    -0.2630 ha         1 6WW       0.125000
     25 H3           3.0730    -2.6300    -0.0600 ha         1 6WW       0.111000
     26 H4           4.0080     2.4880     0.4070 hc         1 6WW       0.050700
     27 H5           4.5220     2.4460    -1.2580 hc         1 6WW       0.050700
     28 H6           2.1200     3.2010    -0.8410 hc         1 6WW       0.043700
     29 H7           2.2830     1.9260    -2.0360 hc         1 6WW       0.043700
     30 H8           1.6950     1.4190     0.9030 hc         1 6WW       0.057700
     31 H9           1.6060    -0.3320    -1.5750 hc         1 6WW       0.051700
     32 H10         -0.1530     1.1980    -1.4850 hc         1 6WW       0.044700
     33 H11         -1.1940    -1.5850     0.6110 hc         1 6WW       0.045200
     34 H12         -0.8340    -1.0450    -1.0200 hc         1 6WW       0.045200
     35 H13          1.0760    -2.2210    -0.1360 hc         1 6WW       0.042700
     36 H14          1.1560    -1.2260     1.2950 hc         1 6WW       0.042700
     37 H15         -0.1760     3.3370     0.6680 hc         1 6WW       0.044700
     38 H16         -0.3480     3.5380    -1.0640 hc         1 6WW       0.044700
     39 H17         -2.4820     3.1020     0.8080 hc         1 6WW       0.047700
     40 H18         -2.6610     3.0480    -0.9270 hc         1 6WW       0.047700
     41 H19         -2.3660     0.7850    -1.1130 h1         1 6WW       0.057700
     42 H21         -0.8590     1.8100     2.2070 hc         1 6WW       0.035033
     43 H22         -1.4270     0.1610     2.4660 hc         1 6WW       0.035033
     44 H23          0.2800     0.4850     2.2440 hc         1 6WW       0.035033
     45 H24         -4.7450     1.9020     1.6920 h1         1 6WW       0.033700
     46 C4          -4.8150    -2.0050    -1.6530 ca         1 6WW      -0.068500
     47 H26         -4.1730     0.4860     2.5860 h1         1 6WW       0.033700
     48 H30          7.5580    -2.2020     0.2580 ho         1 6WW       0.463000
     49 C1          -5.6020    -0.5270     0.5410 ca         1 6WW      -0.193500
     50 C2          -6.4660    -1.4470    -0.0340 ca         1 6WW      -0.068500
     51 C3          -6.0910    -2.1970    -1.1390 ca         1 6WW      -0.166000
     52 C5          -3.9370    -1.0960    -1.0860 ca         1 6WW      -0.193500
     53 H20         -5.9580     0.0350     1.3930 ha         1 6WW       0.109000
     54 H25         -7.4540    -1.5670     0.3930 ha         1 6WW       0.105000
     55 H27         -6.7690    -2.9130    -1.5840 ha         1 6WW       0.112000
     56 H28         -2.9490    -1.0180    -1.5130 ha         1 6WW       0.109000
     57 H29         -3.0880     1.8150     2.2700 h1         1 6WW       0.033700
     58 H31         -4.4830    -2.5790    -2.5090 ha         1 6WW       0.105000
@<TRIPOS>BOND
     1     1     2 ar  
     2     1     6 ar  
     3     1    23 1   
     4     2     3 ar  
     5     2    22 1   
     6     3     4 ar  
     7     3    24 1   
     8     4     5 ar  
     9     4     7 1   
    10     5     6 ar  
    11     5    10 1   
    12     6    25 1   
    13     7     8 1   
    14     7    26 1   
    15     7    27 1   
    16     8     9 1   
    17     8    28 1   
    18     8    29 1   
    19     9    10 1   
    20     9    11 1   
    21     9    30 1   
    22    10    14 1   
    23    10    31 1   
    24    11    12 1   
    25    11    15 1   
    26    11    32 1   
    27    12    13 1   
    28    12    17 1   
    29    12    19 1   
    30    13    14 1   
    31    13    33 1   
    32    13    34 1   
    33    14    35 1   
    34    14    36 1   
    35    15    16 1   
    36    15    37 1   
    37    15    38 1   
    38    16    17 1   
    39    16    39 1   
    40    16    40 1   
    41    17    18 1   
    42    17    41 1   
    43    18    20 1   
    44    18    21 1   
    45    19    42 1   
    46    19    43 1   
    47    19    44 1   
    48    20    45 1   
    49    20    47 1   
    50    20    57 1   
    51    21    49 ar  
    52    21    52 ar  
    53    22    48 1   
    54    46    51 ar  
    55    46    52 ar  
    56    46    58 1   
    57    49    50 ar  
    58    49    53 1   
    59    50    51 ar  
    60    50    54 1   
    61    51    55 1   
    62    52    56 1   
@<TRIPOS>SUBSTRUCTURE
     1 6WW         1 TEMP              0 ****  ****    0 ROOT
