@<TRIPOS>MOLECULE
6WW
   58    62     1     0     0
SMALL
No Charge or Current Charge


@<TRIPOS>ATOM
      1 C01          5.2880    -2.0780    -0.0310 ca         1 6WW      -0.206000
      2 C02          6.1930    -1.0140    -0.1110 ca         1 6WW       0.138100
      3 C03          5.7230     0.2890    -0.3050 ca         1 6WW      -0.150000
      4 C04          4.3430     0.5460    -0.4170 ca         1 6WW      -0.035300
      5 C05          3.4110    -0.5230    -0.3130 ca         1 6WW      -0.101300
      6 C06          3.9080    -1.8360    -0.1370 ca         1 6WW      -0.069000
      7 C07          3.8990     2.0000    -0.6270 c6         1 6WW      -0.033100
      8 C08          2.4180     2.1580    -1.0280 c6         1 6WW      -0.069400
      9 C09          1.5320     1.2380    -0.1600 c6         1 6WW      -0.046700
     10 C10          1.8900    -0.2580    -0.4570 c6         1 6WW      -0.005400
     11 C11          0.0140     1.4690    -0.4000 c5         1 6WW      -0.064700
     12 C12         -0.8870     0.5650     0.4990 c5         1 6WW      -0.057000
     13 C13         -0.5440    -0.9200     0.1840 c6         1 6WW      -0.061400
     14 C14          0.9730    -1.2280     0.3680 c6         1 6WW      -0.069400
     15 C15         -0.5770     2.8940    -0.1590 c5         1 6WW      -0.069400
     16 C16         -2.1250     2.6500    -0.0300 c5         1 6WW      -0.093400
     17 C17         -2.2780     1.0860    -0.1090 c5         1 6WW       0.247500
     18 N01         -3.5610     0.6290     0.6080 nh         1 6WW      -0.826400
     19 C18         -0.7170     0.7920     2.0440 c3         1 6WW      -0.079100
     20 C19         -3.9740     1.2000     1.9200 c3         1 6WW       0.214100
     21 C20         -4.4390    -0.3450    -0.0390 ca         1 6WW       0.344000
     22 O01          7.5320    -1.2450    -0.0080 oh         1 6WW      -0.536100
     23 H1           5.6430    -3.0960     0.1090 ha         1 6WW       0.112000
     24 H2           6.4350     1.1080    -0.3720 ha         1 6WW       0.125000
     25 H3           3.2370    -2.6880    -0.0870 ha         1 6WW       0.111000
     26 H4           4.0760     2.5540     0.3050 hc         1 6WW       0.050700
     27 H5           4.5320     2.4780    -1.3880 hc         1 6WW       0.050700
     28 H6           2.1240     3.2090    -0.9120 hc         1 6WW       0.043700
     29 H7           2.2900     1.9100    -2.0910 hc         1 6WW       0.043700
     30 H8           1.7580     1.4550     0.8920 hc         1 6WW       0.057700
     31 H9           1.6550    -0.4420    -1.5150 hc         1 6WW       0.051700
     32 H10         -0.1260     1.2130    -1.4590 hc         1 6WW       0.044700
     33 H11         -1.1510    -1.5930     0.8050 hc         1 6WW       0.045200
     34 H12         -0.8080    -1.1420    -0.8580 hc         1 6WW       0.045200
     35 H13          1.1300    -2.2640     0.0450 hc         1 6WW       0.042700
     36 H14          1.2520    -1.2000     1.4300 hc         1 6WW       0.042700
     37 H15         -0.1690     3.3530     0.7490 hc         1 6WW       0.044700
     38 H16         -0.3430     3.5740    -0.9850 hc         1 6WW       0.044700
     39 H17         -2.4860     3.0980     0.9000 hc         1 6WW       0.047700
     40 H18         -2.6810     3.1340    -0.8400 hc         1 6WW       0.047700
     41 H19         -2.3340     0.8100    -1.1720 h1         1 6WW       0.057700
     42 H21         -0.9390     1.8190     2.3510 hc         1 6WW       0.035033
     43 H22         -1.3830     0.1300     2.6100 hc         1 6WW       0.035033
     44 H23          0.2980     0.5840     2.3940 hc         1 6WW       0.035033
     45 H24         -4.7550     1.9590     1.7770 h1         1 6WW       0.033700
     46 C4          -4.9140    -2.2030    -1.6240 ca         1 6WW      -0.068500
     47 H26         -4.3630     0.4100     2.5750 h1         1 6WW       0.033700
     48 H30          7.6690    -2.2080     0.1220 ho         1 6WW       0.463000
     49 C1          -5.8130    -0.3710     0.3070 ca         1 6WW      -0.193500
     50 C2          -6.7100    -1.2800    -0.2820 ca         1 6WW      -0.068500
     51 C3          -6.2610    -2.1960    -1.2430 ca         1 6WW      -0.166000
     52 C5          -4.0160    -1.2960    -1.0390 ca         1 6WW      -0.193500
     53 H20         -6.2150     0.3280     1.0320 ha         1 6WW       0.109000
     54 H25         -7.7580    -1.2710     0.0080 ha         1 6WW       0.105000
     55 H27         -6.9600    -2.8970    -1.6950 ha         1 6WW       0.112000
     56 H28         -2.9810    -1.3260    -1.3530 ha         1 6WW       0.109000
     57 H29         -3.1430     1.6770     2.4500 h1         1 6WW       0.033700
     58 H31         -4.5640    -2.9110    -2.3720 ha         1 6WW       0.105000
@<TRIPOS>BOND
     1     1     2 ar  
     2     1     6 ar  
     3     1    23 1   
     4     2     3 ar  
     5     2    22 1   
     6     3     4 ar  
     7     3    24 1   
     8     4     5 ar  
     9     4     7 1   
    10     5     6 ar  
    11     5    10 1   
    12     6    25 1   
    13     7     8 1   
    14     7    26 1   
    15     7    27 1   
    16     8     9 1   
    17     8    28 1   
    18     8    29 1   
    19     9    10 1   
    20     9    11 1   
    21     9    30 1   
    22    10    14 1   
    23    10    31 1   
    24    11    12 1   
    25    11    15 1   
    26    11    32 1   
    27    12    13 1   
    28    12    17 1   
    29    12    19 1   
    30    13    14 1   
    31    13    33 1   
    32    13    34 1   
    33    14    35 1   
    34    14    36 1   
    35    15    16 1   
    36    15    37 1   
    37    15    38 1   
    38    16    17 1   
    39    16    39 1   
    40    16    40 1   
    41    17    18 1   
    42    17    41 1   
    43    18    20 1   
    44    18    21 1   
    45    19    42 1   
    46    19    43 1   
    47    19    44 1   
    48    20    45 1   
    49    20    47 1   
    50    20    57 1   
    51    21    49 ar  
    52    21    52 ar  
    53    22    48 1   
    54    46    51 ar  
    55    46    52 ar  
    56    46    58 1   
    57    49    50 ar  
    58    49    53 1   
    59    50    51 ar  
    60    50    54 1   
    61    51    55 1   
    62    52    56 1   
@<TRIPOS>SUBSTRUCTURE
     1 6WW         1 TEMP              0 ****  ****    0 ROOT
