@<TRIPOS>MOLECULE
6WX
   55    58     1     0     0
SMALL
bcc


@<TRIPOS>ATOM
      1 OAE          1.3460     1.1600    -1.7140 o          1 6WX      -0.636500
      2 CBA          2.4260     1.1760    -1.1610 c          1 6WX       0.835500
      3 NAT          2.9860     2.3590    -0.7400 ns         1 6WX      -0.598500
      4 CAZ          4.1860     2.5410    -0.1040 c          1 6WX       0.740100
      5 OAD          4.5710     3.6500     0.2060 o          1 6WX      -0.596500
      6 CBB          4.9140     1.3010     0.1560 ca         1 6WX      -0.217600
      7 CAK          6.1390     1.3570     0.8200 ca         1 6WX      -0.031000
      8 CAG          6.8440     0.2060     1.0940 ca         1 6WX      -0.171000
      9 CAH          6.3100    -1.0160     0.6970 ca         1 6WX      -0.063000
     10 CAL          5.0990    -1.0910     0.0360 ca         1 6WX      -0.198000
     11 CBC          4.3760     0.0720    -0.2520 ca         1 6WX       0.128600
     12 NBF          3.1580     0.0410    -0.9220 n          1 6WX      -0.372000
     13 CAS          2.5390    -1.2080    -1.3700 c3         1 6WX       0.158300
     14 CAW          1.4650    -1.6820    -0.4270 ca         1 6WX      -0.140300
     15 CAM          0.1330    -1.6430    -0.8160 ca         1 6WX      -0.043000
     16 CAI          1.7740    -2.1410     0.8510 ca         1 6WX      -0.071000
     17 CAJ          0.7790    -2.5500     1.7240 ca         1 6WX      -0.180000
     18 CAX         -0.5350    -2.5020     1.3010 ca         1 6WX       0.190900
     19 FAF         -1.5030    -2.8750     2.1470 f          1 6WX      -0.124900
     20 CAY         -0.8840    -2.0500     0.0410 ca         1 6WX      -0.197600
     21 CAV         -2.3120    -2.0750    -0.4060 c          1 6WX       0.698700
     22 OAC         -2.9170    -3.1330    -0.4680 o          1 6WX      -0.576100
     23 N           -2.8480    -0.8920    -0.7700 n          1 6WX      -0.469800
     24 CAQ         -4.2080    -0.8060    -1.2560 c6         1 6WX       0.076000
     25 CAP         -5.0760    -0.2150    -0.1690 c6         1 6WX       0.084000
     26 CA          -2.2740     0.4070    -0.5100 c6         1 6WX       0.014000
     27 C           -3.2220     1.3770     0.1810 c          1 6WX       0.692500
     28 O           -2.7700     2.4520     0.5530 o          1 6WX      -0.638500
     29 NBD         -4.5000     1.0120     0.3580 n          1 6WX      -0.472800
     30 CAO         -5.4060     1.8790     1.0940 c3         1 6WX       0.096000
     31 CAN         -6.1700     2.8490     0.2010 c3         1 6WX      -0.096400
     32 CAA         -7.1100     3.7290     1.0130 c3         1 6WX      -0.088100
     33 H1           2.4360     3.1880    -0.9330 hn         1 6WX       0.349500
     34 H2           6.5270     2.3220     1.1170 ha         1 6WX       0.160000
     35 H3           7.7920     0.2510     1.6120 ha         1 6WX       0.145000
     36 H4           6.8440    -1.9340     0.9050 ha         1 6WX       0.137000
     37 H5           4.7340    -2.0680    -0.2410 ha         1 6WX       0.140000
     38 H6           2.1270    -1.0470    -2.3640 h1         1 6WX       0.073200
     39 H7           3.3150    -1.9590    -1.4920 h1         1 6WX       0.073200
     40 H8          -0.1220    -1.2860    -1.8050 ha         1 6WX       0.153000
     41 H9           2.8030    -2.1840     1.1870 ha         1 6WX       0.139000
     42 H10          1.0200    -2.9000     2.7180 ha         1 6WX       0.157000
     43 H11         -4.2190    -0.1710    -2.1460 h1         1 6WX       0.073200
     44 H12         -4.5760    -1.7880    -1.5400 h1         1 6WX       0.073200
     45 H13         -6.0630     0.0090    -0.5790 h1         1 6WX       0.054700
     46 H14         -5.2130    -0.9390     0.6390 h1         1 6WX       0.054700
     47 H15         -1.3990     0.3250     0.1320 h1         1 6WX       0.087700
     48 H16         -1.9420     0.8790    -1.4410 h1         1 6WX       0.087700
     49 H17         -6.1070     1.2350     1.6320 h1         1 6WX       0.056700
     50 H18         -4.8420     2.4270     1.8490 h1         1 6WX       0.056700
     51 H19         -5.4570     3.4700    -0.3460 hc         1 6WX       0.046700
     52 H20         -6.7420     2.2920    -0.5470 hc         1 6WX       0.046700
     53 H21         -7.6720     4.4040     0.3680 hc         1 6WX       0.034367
     54 H22         -7.8320     3.1300     1.5710 hc         1 6WX       0.034367
     55 H23         -6.5610     4.3390     1.7320 hc         1 6WX       0.034367
@<TRIPOS>BOND
     1     1     2 2   
     2     2     3 1   
     3     2    12 1   
     4     3     4 1   
     5     3    33 1   
     6     4     5 2   
     7     4     6 1   
     8     6     7 ar  
     9     6    11 ar  
    10     7     8 ar  
    11     7    34 1   
    12     8     9 ar  
    13     8    35 1   
    14     9    10 ar  
    15     9    36 1   
    16    10    11 ar  
    17    10    37 1   
    18    11    12 1   
    19    12    13 1   
    20    13    14 1   
    21    13    38 1   
    22    13    39 1   
    23    14    15 ar  
    24    14    16 ar  
    25    15    20 ar  
    26    15    40 1   
    27    16    17 ar  
    28    16    41 1   
    29    17    18 ar  
    30    17    42 1   
    31    18    19 1   
    32    18    20 ar  
    33    20    21 1   
    34    21    22 2   
    35    21    23 1   
    36    23    24 1   
    37    23    26 1   
    38    24    25 1   
    39    24    43 1   
    40    24    44 1   
    41    25    29 1   
    42    25    45 1   
    43    25    46 1   
    44    26    27 1   
    45    26    47 1   
    46    26    48 1   
    47    27    28 2   
    48    27    29 1   
    49    29    30 1   
    50    30    31 1   
    51    30    49 1   
    52    30    50 1   
    53    31    32 1   
    54    31    51 1   
    55    31    52 1   
    56    32    53 1   
    57    32    54 1   
    58    32    55 1   
@<TRIPOS>SUBSTRUCTURE
     1 6WX         1 TEMP              0 ****  ****    0 ROOT
