@<TRIPOS>MOLECULE
6WX
   55    58     1     0     0
SMALL
No Charge or Current Charge


@<TRIPOS>ATOM
      1 OAE          2.9270    -0.4810    -3.9990 o          1 6WX      -0.561000
      2 CBA          2.7390     0.1610    -2.9800 c          1 6WX       0.626000
      3 NAT          2.3600     1.4610    -3.0590 ns         1 6WX      -0.464500
      4 CAZ          2.0900     2.3250    -2.0510 c          1 6WX       0.597600
      5 OAD          1.7380     3.4700    -2.2810 o          1 6WX      -0.521000
      6 CBB          2.2620     1.7790    -0.6710 ca         1 6WX      -0.217600
      7 CAK          2.0570     2.6060     0.4530 ca         1 6WX      -0.013000
      8 CAG          2.2660     2.1020     1.7450 ca         1 6WX      -0.153000
      9 CAH          2.6980     0.7800     1.9200 ca         1 6WX      -0.045000
     10 CAL          2.9000    -0.0440     0.8010 ca         1 6WX      -0.180000
     11 CBC          2.6410     0.4330    -0.5050 ca         1 6WX       0.128600
     12 NBF          2.8710    -0.3730    -1.6800 n          1 6WX      -0.305000
     13 CAS          3.1050    -1.8370    -1.5380 c3         1 6WX       0.158300
     14 CAW          1.9570    -2.5880    -0.8630 ca         1 6WX      -0.140300
     15 CAM          0.6240    -2.1560    -1.0170 ca         1 6WX      -0.025000
     16 CAI          2.2300    -3.7120    -0.0610 ca         1 6WX      -0.053000
     17 CAJ          1.1800    -4.3880     0.5820 ca         1 6WX      -0.162000
     18 CAX         -0.1420    -3.9400     0.4410 ca         1 6WX       0.226000
     19 FAF         -1.1210    -4.5910     1.1080 f          1 6WX      -0.160000
     20 CAY         -0.4320    -2.8070    -0.3440 ca         1 6WX      -0.197600
     21 CAV         -1.8470    -2.3180    -0.4910 c          1 6WX       0.631700
     22 OAC         -2.7700    -3.1000    -0.6730 o          1 6WX      -0.576100
     23 N           -2.0630    -0.9180    -0.5270 n          1 6WX      -0.402800
     24 CAQ         -3.3800    -0.3410    -0.8870 c6         1 6WX       0.076000
     25 CAP         -4.0990     0.2160     0.3570 c6         1 6WX       0.084000
     26 CA          -1.1610     0.0610     0.1680 c6         1 6WX       0.014000
     27 C           -1.8430     1.1630     1.0210 c          1 6WX       0.550000
     28 O           -1.1630     1.9940     1.6080 o          1 6WX      -0.563000
     29 NBD         -3.2570     1.1750     1.1130 n          1 6WX      -0.405800
     30 CAO         -3.9490     2.1670     1.9670 c3         1 6WX       0.096000
     31 CAN         -4.4030     3.4160     1.1850 c3         1 6WX      -0.096400
     32 CAA         -5.1280     4.4480     2.0710 c3         1 6WX      -0.088100
     33 H1           2.2570     1.8280    -3.9910 hn         1 6WX       0.349500
     34 H2           1.7440     3.6420     0.3300 ha         1 6WX       0.142000
     35 H3           2.1080     2.7420     2.6110 ha         1 6WX       0.127000
     36 H4           2.8810     0.3950     2.9210 ha         1 6WX       0.119000
     37 H5           3.2490    -1.0570     0.9730 ha         1 6WX       0.122000
     38 H6           3.2860    -2.3030    -2.5150 h1         1 6WX       0.073200
     39 H7           4.0260    -1.9800    -0.9600 h1         1 6WX       0.073200
     40 H8           0.4050    -1.3100    -1.6650 ha         1 6WX       0.135000
     41 H9           3.2530    -4.0600     0.0670 ha         1 6WX       0.121000
     42 H10          1.3910    -5.2540     1.2030 ha         1 6WX       0.139000
     43 H11         -3.2260     0.4730    -1.6090 h1         1 6WX       0.073200
     44 H12         -4.0190    -1.0880    -1.3780 h1         1 6WX       0.073200
     45 H13         -5.0340     0.7030     0.0460 h1         1 6WX       0.054700
     46 H14         -4.3650    -0.6180     1.0210 h1         1 6WX       0.054700
     47 H15         -0.4830    -0.4650     0.8530 h1         1 6WX       0.087700
     48 H16         -0.5510     0.5860    -0.5790 h1         1 6WX       0.087700
     49 H17         -4.8290     1.6870     2.4160 h1         1 6WX       0.056700
     50 H18         -3.2940     2.4700     2.7950 h1         1 6WX       0.056700
     51 H19         -3.5280     3.8910     0.7250 hc         1 6WX       0.046700
     52 H20         -5.0710     3.1150     0.3690 hc         1 6WX       0.046700
     53 H21         -5.4300     5.3180     1.4750 hc         1 6WX       0.034367
     54 H22         -6.0270     4.0110     2.5200 hc         1 6WX       0.034367
     55 H23         -4.4710     4.7960     2.8770 hc         1 6WX       0.034367
@<TRIPOS>BOND
     1     1     2 2   
     2     2     3 1   
     3     2    12 1   
     4     3     4 1   
     5     3    33 1   
     6     4     5 2   
     7     4     6 1   
     8     6     7 ar  
     9     6    11 ar  
    10     7     8 ar  
    11     7    34 1   
    12     8     9 ar  
    13     8    35 1   
    14     9    10 ar  
    15     9    36 1   
    16    10    11 ar  
    17    10    37 1   
    18    11    12 1   
    19    12    13 1   
    20    13    14 1   
    21    13    38 1   
    22    13    39 1   
    23    14    15 ar  
    24    14    16 ar  
    25    15    20 ar  
    26    15    40 1   
    27    16    17 ar  
    28    16    41 1   
    29    17    18 ar  
    30    17    42 1   
    31    18    19 1   
    32    18    20 ar  
    33    20    21 1   
    34    21    22 2   
    35    21    23 1   
    36    23    24 1   
    37    23    26 1   
    38    24    25 1   
    39    24    43 1   
    40    24    44 1   
    41    25    29 1   
    42    25    45 1   
    43    25    46 1   
    44    26    27 1   
    45    26    47 1   
    46    26    48 1   
    47    27    28 2   
    48    27    29 1   
    49    29    30 1   
    50    30    31 1   
    51    30    49 1   
    52    30    50 1   
    53    31    32 1   
    54    31    51 1   
    55    31    52 1   
    56    32    53 1   
    57    32    54 1   
    58    32    55 1   
@<TRIPOS>SUBSTRUCTURE
     1 6WX         1 TEMP              0 ****  ****    0 ROOT
