@<TRIPOS>MOLECULE
6WY
   52    55     1     0     0
SMALL
abcg2


@<TRIPOS>ATOM
      1 OAE          2.4140     1.8140    -1.7950 o          1 6WY      -0.548000
      2 CAZ          3.3410     1.2920    -1.2120 c          1 6WY       0.623000
      3 NAS          4.5950     1.2380    -1.7730 ns         1 6WY      -0.465500
      4 CAY          5.7340     0.7010    -1.2310 c          1 6WY       0.597600
      5 OAD          6.7930     0.7470    -1.8230 o          1 6WY      -0.522000
      6 CBA          5.5360     0.0830     0.0780 ca         1 6WY      -0.217600
      7 CAK          6.6140    -0.5330     0.7120 ca         1 6WY      -0.014000
      8 CAG          6.4550    -1.1450     1.9360 ca         1 6WY      -0.153000
      9 CAH          5.1940    -1.1450     2.5250 ca         1 6WY      -0.045000
     10 CAL          4.1140    -0.5370     1.9130 ca         1 6WY      -0.181000
     11 CBB          4.2700     0.1000     0.6780 ca         1 6WY       0.127600
     12 NBE          3.2130     0.7370     0.0360 n          1 6WY      -0.306000
     13 CAR          1.8870     0.8530     0.6350 c3         1 6WY       0.158300
     14 CAV          0.9040    -0.1490     0.0910 ca         1 6WY      -0.133300
     15 CAM         -0.3110     0.2870    -0.4180 ca         1 6WY      -0.030000
     16 CAI          1.1730    -1.5160     0.1010 ca         1 6WY      -0.054000
     17 CAJ          0.2490    -2.4270    -0.3850 ca         1 6WY      -0.160000
     18 CAW         -0.9490    -1.9570    -0.8860 ca         1 6WY       0.224000
     19 FAF         -1.8510    -2.8350    -1.3430 f          1 6WY      -0.161000
     20 CAX         -1.2560    -0.6080    -0.9080 ca         1 6WY      -0.194600
     21 CAU         -2.5160    -0.1250    -1.5570 c          1 6WY       0.633700
     22 OAC         -2.7120    -0.3370    -2.7430 o          1 6WY      -0.568100
     23 N           -3.3610     0.5830    -0.7810 n          1 6WY      -0.406800
     24 CAP         -4.5630     1.1760    -1.3230 c6         1 6WY       0.077000
     25 CAO         -5.7630     0.4040    -0.8280 c6         1 6WY       0.085000
     26 CA          -3.2990     0.6710     0.6590 c6         1 6WY       0.018000
     27 C           -4.6180     0.3760     1.3590 c          1 6WY       0.551000
     28 O           -4.6130     0.2910     2.5800 o          1 6WY      -0.567000
     29 NBC         -5.7240     0.2290     0.6150 n          1 6WY      -0.405800
     30 CAN         -6.9900    -0.0900     1.2610 c3         1 6WY       0.099000
     31 CAA         -7.7430     1.1500     1.7170 c3         1 6WY      -0.112100
     32 H1           4.6770     1.6670    -2.6870 hn         1 6WY       0.347500
     33 H2           7.5800    -0.5250     0.2250 ha         1 6WY       0.141000
     34 H3           7.2910    -1.6240     2.4260 ha         1 6WY       0.127000
     35 H4           5.0420    -1.6310     3.4800 ha         1 6WY       0.120000
     36 H5           3.1570    -0.5830     2.4120 ha         1 6WY       0.124000
     37 H6           1.9840     0.7560     1.7130 h1         1 6WY       0.072200
     38 H7           1.5210     1.8630     0.4630 h1         1 6WY       0.072200
     39 H8          -0.5270     1.3490    -0.4440 ha         1 6WY       0.129000
     40 H9           2.1100    -1.8920     0.4920 ha         1 6WY       0.123000
     41 H10          0.4550    -3.4890    -0.3700 ha         1 6WY       0.139000
     42 H11         -4.6170     2.2180    -0.9960 h1         1 6WY       0.073700
     43 H12         -4.5360     1.1680    -2.4090 h1         1 6WY       0.073700
     44 H13         -6.6720     0.9500    -1.0900 h1         1 6WY       0.055200
     45 H14         -5.8180    -0.5720    -1.3190 h1         1 6WY       0.055200
     46 H15         -2.5720    -0.0320     1.0600 h1         1 6WY       0.078200
     47 H16         -2.9830     1.6720     0.9730 h1         1 6WY       0.078200
     48 H17         -7.5870    -0.6520     0.5410 h1         1 6WY       0.056200
     49 H18         -6.8050    -0.7550     2.1030 h1         1 6WY       0.056200
     50 H19         -7.1800     1.6940     2.4750 hc         1 6WY       0.042700
     51 H20         -7.9410     1.8270     0.8850 hc         1 6WY       0.042700
     52 H21         -8.7030     0.8680     2.1490 hc         1 6WY       0.042700
@<TRIPOS>BOND
     1     1     2 2   
     2     2     3 1   
     3     2    12 1   
     4     3     4 1   
     5     3    32 1   
     6     4     5 2   
     7     4     6 1   
     8     6     7 ar  
     9     6    11 ar  
    10     7     8 ar  
    11     7    33 1   
    12     8     9 ar  
    13     8    34 1   
    14     9    10 ar  
    15     9    35 1   
    16    10    11 ar  
    17    10    36 1   
    18    11    12 1   
    19    12    13 1   
    20    13    14 1   
    21    13    37 1   
    22    13    38 1   
    23    14    15 ar  
    24    14    16 ar  
    25    15    20 ar  
    26    15    39 1   
    27    16    17 ar  
    28    16    40 1   
    29    17    18 ar  
    30    17    41 1   
    31    18    19 1   
    32    18    20 ar  
    33    20    21 1   
    34    21    22 2   
    35    21    23 1   
    36    23    24 1   
    37    23    26 1   
    38    24    25 1   
    39    24    42 1   
    40    24    43 1   
    41    25    29 1   
    42    25    44 1   
    43    25    45 1   
    44    26    27 1   
    45    26    46 1   
    46    26    47 1   
    47    27    28 2   
    48    27    29 1   
    49    29    30 1   
    50    30    31 1   
    51    30    48 1   
    52    30    49 1   
    53    31    50 1   
    54    31    51 1   
    55    31    52 1   
@<TRIPOS>SUBSTRUCTURE
     1 6WY         1 TEMP              0 ****  ****    0 ROOT
