@<TRIPOS>MOLECULE
6WY
   52    55     1     0     0
SMALL
No Charge or Current Charge


@<TRIPOS>ATOM
      1 OAE          3.0640     1.8870    -2.3050 o          1 6WY      -0.548000
      2 CAZ          3.7650     1.3850    -1.4420 c          1 6WY       0.623000
      3 NAS          5.1140     1.3680    -1.5840 ns         1 6WY      -0.465500
      4 CAY          6.0440     0.8690    -0.7340 c          1 6WY       0.597600
      5 OAD          7.2350     0.9470    -0.9890 o          1 6WY      -0.522000
      6 CBA          5.5090     0.2220     0.5030 ca         1 6WY      -0.217600
      7 CAK          6.3850    -0.3980     1.4190 ca         1 6WY      -0.014000
      8 CAG          5.8730    -1.0620     2.5430 ca         1 6WY      -0.153000
      9 CAH          4.4880    -1.1310     2.7450 ca         1 6WY      -0.045000
     10 CAL          3.6150    -0.5100     1.8360 ca         1 6WY      -0.181000
     11 CBB          4.1180     0.2170     0.7310 ca         1 6WY       0.127600
     12 NBE          3.2550     0.8180    -0.2570 n          1 6WY      -0.306000
     13 CAR          1.8010     0.9780     0.0110 c3         1 6WY       0.158300
     14 CAV          0.9130    -0.1360    -0.5470 ca         1 6WY      -0.133300
     15 CAM         -0.4290     0.1530    -0.8680 ca         1 6WY      -0.030000
     16 CAI          1.4020    -1.4430    -0.7490 ca         1 6WY      -0.054000
     17 CAJ          0.5600    -2.4370    -1.2720 ca         1 6WY      -0.160000
     18 CAW         -0.7720    -2.1400    -1.5930 ca         1 6WY       0.224000
     19 FAF         -1.5600    -3.1300    -2.0690 f          1 6WY      -0.161000
     20 CAX         -1.2870    -0.8460    -1.3800 ca         1 6WY      -0.194600
     21 CAU         -2.7150    -0.5290    -1.7400 c          1 6WY       0.633700
     22 OAC         -3.2040    -0.9280    -2.7880 o          1 6WY      -0.568100
     23 N           -3.4410     0.3380    -0.8870 n          1 6WY      -0.406800
     24 CAP         -4.7720     0.8720    -1.2630 c6         1 6WY       0.077000
     25 CAO         -5.8930     0.1850    -0.4580 c6         1 6WY       0.085000
     26 CA          -3.1490     0.4620     0.5780 c6         1 6WY       0.018000
     27 C           -4.3610     0.4230     1.5470 c          1 6WY       0.551000
     28 O           -4.1830     0.5300     2.7540 o          1 6WY      -0.567000
     29 NBC         -5.6580     0.2500     1.0050 n          1 6WY      -0.405800
     30 CAN         -6.8390     0.1390     1.8920 c3         1 6WY       0.099000
     31 CAA         -7.5650     1.4810     2.0900 c3         1 6WY      -0.112100
     32 H1           5.4700     1.7910    -2.4260 hn         1 6WY       0.347500
     33 H2           7.4610    -0.3800     1.2540 ha         1 6WY       0.141000
     34 H3           6.5500    -1.5450     3.2450 ha         1 6WY       0.127000
     35 H4           4.0890    -1.6710     3.6010 ha         1 6WY       0.120000
     36 H5           2.5480    -0.6080     2.0100 ha         1 6WY       0.124000
     37 H6           1.6300     1.0740     1.0890 h1         1 6WY       0.072200
     38 H7           1.4690     1.9350    -0.4130 h1         1 6WY       0.072200
     39 H8          -0.7980     1.1690    -0.7370 ha         1 6WY       0.129000
     40 H9           2.4320    -1.6980    -0.5080 ha         1 6WY       0.123000
     41 H10          0.9390    -3.4430    -1.4290 ha         1 6WY       0.139000
     42 H11         -4.7920     1.9520    -1.0590 h1         1 6WY       0.073700
     43 H12         -4.9600     0.7460    -2.3380 h1         1 6WY       0.073700
     44 H13         -6.8540     0.6570    -0.7050 h1         1 6WY       0.055200
     45 H14         -5.9560    -0.8700    -0.7590 h1         1 6WY       0.055200
     46 H15         -2.4880    -0.3530     0.9020 h1         1 6WY       0.078200
     47 H16         -2.6350     1.4140     0.7640 h1         1 6WY       0.078200
     48 H17         -7.5410    -0.5830     1.4540 h1         1 6WY       0.056200
     49 H18         -6.5390    -0.2610     2.8700 h1         1 6WY       0.056200
     50 H19         -6.8920     2.2190     2.5440 hc         1 6WY       0.042700
     51 H20         -7.9200     1.8780     1.1320 hc         1 6WY       0.042700
     52 H21         -8.4300     1.3510     2.7510 hc         1 6WY       0.042700
@<TRIPOS>BOND
     1     1     2 2   
     2     2     3 1   
     3     2    12 1   
     4     3     4 1   
     5     3    32 1   
     6     4     5 2   
     7     4     6 1   
     8     6     7 ar  
     9     6    11 ar  
    10     7     8 ar  
    11     7    33 1   
    12     8     9 ar  
    13     8    34 1   
    14     9    10 ar  
    15     9    35 1   
    16    10    11 ar  
    17    10    36 1   
    18    11    12 1   
    19    12    13 1   
    20    13    14 1   
    21    13    37 1   
    22    13    38 1   
    23    14    15 ar  
    24    14    16 ar  
    25    15    20 ar  
    26    15    39 1   
    27    16    17 ar  
    28    16    40 1   
    29    17    18 ar  
    30    17    41 1   
    31    18    19 1   
    32    18    20 ar  
    33    20    21 1   
    34    21    22 2   
    35    21    23 1   
    36    23    24 1   
    37    23    26 1   
    38    24    25 1   
    39    24    42 1   
    40    24    43 1   
    41    25    29 1   
    42    25    44 1   
    43    25    45 1   
    44    26    27 1   
    45    26    46 1   
    46    26    47 1   
    47    27    28 2   
    48    27    29 1   
    49    29    30 1   
    50    30    31 1   
    51    30    48 1   
    52    30    49 1   
    53    31    50 1   
    54    31    51 1   
    55    31    52 1   
@<TRIPOS>SUBSTRUCTURE
     1 6WY         1 TEMP              0 ****  ****    0 ROOT
