@<TRIPOS>MOLECULE
6WZ
   56    59     1     0     0
SMALL
abcg2


@<TRIPOS>ATOM
      1 OAD          1.6360     1.2370    -1.5980 o          1 6WZ      -0.561000
      2 CBA          2.7200     1.4230    -1.0870 c          1 6WZ       0.625000
      3 NAU          3.0850     2.6700    -0.6370 ns         1 6WZ      -0.466500
      4 CAZ          4.2680     3.0380    -0.0500 c          1 6WZ       0.597600
      5 OAC          4.4700     4.1860     0.2900 o          1 6WZ      -0.521000
      6 CBB          5.2130     1.9370     0.1200 ca         1 6WZ      -0.219600
      7 CAM          6.4440     2.1870     0.7260 ca         1 6WZ      -0.014000
      8 CAI          7.3550     1.1710     0.9140 ca         1 6WZ      -0.152000
      9 CAJ          7.0230    -0.1120     0.4880 ca         1 6WZ      -0.044000
     10 CAN          5.8090    -0.3780    -0.1160 ca         1 6WZ      -0.179000
     11 CBC          4.8780     0.6470    -0.3160 ca         1 6WZ       0.128600
     12 NBG          3.6480     0.4250    -0.9270 n          1 6WZ      -0.305000
     13 CAR          3.2300    -0.8950    -1.4000 c3         1 6WZ       0.158300
     14 CAW          2.2620    -1.5580    -0.4560 ca         1 6WZ      -0.140300
     15 CAO          0.9460    -1.7670    -0.8450 ca         1 6WZ      -0.025000
     16 CAK          2.6530    -1.9480     0.8220 ca         1 6WZ      -0.056000
     17 CAL          1.7500    -2.5330     1.6960 ca         1 6WZ      -0.163000
     18 CAX          0.4510    -2.7290     1.2730 ca         1 6WZ       0.219000
     19 FAE         -0.4340    -3.2720     2.1200 f          1 6WZ      -0.164000
     20 CAY          0.0230    -2.3550     0.0130 ca         1 6WZ      -0.191600
     21 CAV         -1.3750    -2.6560    -0.4330 c          1 6WZ       0.625700
     22 OAB         -1.7300    -3.8200    -0.5540 o          1 6WZ      -0.582100
     23 NBE         -2.1580    -1.6010    -0.7220 n          1 6WZ      -0.399800
     24 CAS         -1.8750    -0.2220    -0.3810 c6         1 6WZ       0.097000
     25 CBD         -2.8470     0.3170     0.6680 c6         1 6WZ       0.174500
     26 CAA         -2.5090     1.7830     0.8970 c3         1 6WZ      -0.096100
     27 CAP         -3.5200    -1.7810    -1.1850 c6         1 6WZ       0.090000
     28 CAQ         -4.4870    -1.2740    -0.1350 c6         1 6WZ       0.150800
     29 NBF         -4.2170     0.1160     0.2040 n3         1 6WZ      -0.734600
     30 CAT         -5.2490     0.6590     1.0600 c3         1 6WZ       0.109800
     31 CBH         -6.1480     1.5920     0.2830 c3         1 6WZ       0.296000
     32 FAG         -7.1250     2.0870     1.0610 f          1 6WZ      -0.117000
     33 FAH         -5.4850     2.6400    -0.2230 f          1 6WZ      -0.117000
     34 FAF         -6.7460     0.9840    -0.7530 f          1 6WZ      -0.117000
     35 H1           2.3930     3.3970    -0.7770 hn         1 6WZ       0.346500
     36 H2           6.6730     3.1940     1.0480 ha         1 6WZ       0.142000
     37 H3           8.3070     1.3660     1.3870 ha         1 6WZ       0.128000
     38 H4           7.7200    -0.9270     0.6300 ha         1 6WZ       0.120000
     39 H5           5.6090    -1.3940    -0.4200 ha         1 6WZ       0.124000
     40 H6           2.7810    -0.7820    -2.3850 h1         1 6WZ       0.073200
     41 H7           4.1110    -1.5100    -1.5490 h1         1 6WZ       0.073200
     42 H8           0.6260    -1.4550    -1.8310 ha         1 6WZ       0.136000
     43 H9           3.6720    -1.7990     1.1580 ha         1 6WZ       0.120000
     44 H10          2.0500    -2.8310     2.6920 ha         1 6WZ       0.138000
     45 H11         -0.8600    -0.1190    -0.0060 h1         1 6WZ       0.069200
     46 H12         -1.9490     0.3900    -1.2870 h1         1 6WZ       0.069200
     47 H13         -2.6630    -0.2360     1.6060 h1         1 6WZ       0.031700
     48 H14         -2.6710     2.3690    -0.0070 hc         1 6WZ       0.046367
     49 H15         -3.0860     2.2310     1.7040 hc         1 6WZ       0.046367
     50 H16         -1.4590     1.8740     1.1770 hc         1 6WZ       0.046367
     51 H17         -3.6510    -1.2210    -2.1150 h1         1 6WZ       0.073200
     52 H18         -3.7090    -2.8300    -1.3930 h1         1 6WZ       0.073200
     53 H19         -5.5000    -1.3580    -0.5310 h1         1 6WZ       0.048200
     54 H20         -4.4320    -1.9270     0.7510 h1         1 6WZ       0.048200
     55 H22         -5.8720    -0.1240     1.5050 h1         1 6WZ       0.070200
     56 H23         -4.8410     1.2180     1.9030 h1         1 6WZ       0.070200
@<TRIPOS>BOND
     1     1     2 2   
     2     2     3 1   
     3     2    12 1   
     4     3     4 1   
     5     3    35 1   
     6     4     5 2   
     7     4     6 1   
     8     6     7 ar  
     9     6    11 ar  
    10     7     8 ar  
    11     7    36 1   
    12     8     9 ar  
    13     8    37 1   
    14     9    10 ar  
    15     9    38 1   
    16    10    11 ar  
    17    10    39 1   
    18    11    12 1   
    19    12    13 1   
    20    13    14 1   
    21    13    40 1   
    22    13    41 1   
    23    14    15 ar  
    24    14    16 ar  
    25    15    20 ar  
    26    15    42 1   
    27    16    17 ar  
    28    16    43 1   
    29    17    18 ar  
    30    17    44 1   
    31    18    19 1   
    32    18    20 ar  
    33    20    21 1   
    34    21    22 2   
    35    21    23 1   
    36    23    24 1   
    37    23    27 1   
    38    24    25 1   
    39    24    45 1   
    40    24    46 1   
    41    25    26 1   
    42    25    29 1   
    43    25    47 1   
    44    26    48 1   
    45    26    49 1   
    46    26    50 1   
    47    27    28 1   
    48    27    51 1   
    49    27    52 1   
    50    28    29 1   
    51    28    53 1   
    52    28    54 1   
    53    29    30 1   
    54    30    31 1   
    55    30    55 1   
    56    30    56 1   
    57    31    32 1   
    58    31    33 1   
    59    31    34 1   
@<TRIPOS>SUBSTRUCTURE
     1 6WZ         1 TEMP              0 ****  ****    0 ROOT
