@<TRIPOS>MOLECULE
6WZ
   56    59     1     0     0
SMALL
No Charge or Current Charge


@<TRIPOS>ATOM
      1 OAD          3.4920    -0.2100    -4.0110 o          1 6WZ      -0.561000
      2 CBA          3.2850     0.4140    -2.9830 c          1 6WZ       0.625000
      3 NAU          2.8090     1.6820    -3.0470 ns         1 6WZ      -0.466500
      4 CAZ          2.5060     2.5220    -2.0280 c          1 6WZ       0.597600
      5 OAC          2.0670     3.6400    -2.2430 o          1 6WZ      -0.521000
      6 CBB          2.7520     1.9860    -0.6550 ca         1 6WZ      -0.219600
      7 CAM          2.5230     2.7950     0.4770 ca         1 6WZ      -0.014000
      8 CAI          2.8040     2.3050     1.7610 ca         1 6WZ      -0.152000
      9 CAJ          3.3200     1.0120     1.9190 ca         1 6WZ      -0.044000
     10 CAN          3.5450     0.2040     0.7930 ca         1 6WZ      -0.179000
     11 CBC          3.2310     0.6700    -0.5050 ca         1 6WZ       0.128600
     12 NBG          3.4940    -0.1110    -1.6910 n          1 6WZ      -0.305000
     13 CAR          3.8570    -1.5510    -1.5640 c3         1 6WZ       0.158300
     14 CAW          2.7680    -2.4100    -0.9220 ca         1 6WZ      -0.140300
     15 CAO          1.4060    -2.0990    -1.1060 ca         1 6WZ      -0.025000
     16 CAK          3.1210    -3.5140    -0.1230 ca         1 6WZ      -0.056000
     17 CAL          2.1210    -4.2880     0.4870 ca         1 6WZ      -0.163000
     18 CAX          0.7670    -3.9590     0.3170 ca         1 6WZ       0.219000
     19 FAE         -0.1660    -4.7010     0.9540 f          1 6WZ      -0.164000
     20 CAY          0.3970    -2.8480    -0.4660 ca         1 6WZ      -0.191600
     21 CAV         -1.0500    -2.4760    -0.6450 c          1 6WZ       0.625700
     22 OAB         -1.9060    -3.3290    -0.8390 o          1 6WZ      -0.582100
     23 NBE         -1.3670    -1.1000    -0.7190 n          1 6WZ      -0.399800
     24 CAS         -0.6610    -0.0750     0.1030 c6         1 6WZ       0.097000
     25 CBD         -1.5230     0.4230     1.3060 c6         1 6WZ       0.174500
     26 CAA         -0.7080     1.4820     2.0990 c3         1 6WZ      -0.096100
     27 CAP         -2.7070    -0.6280    -1.1510 c6         1 6WZ       0.090000
     28 CAQ         -3.5620    -0.1450     0.0460 c6         1 6WZ       0.150800
     29 NBF         -2.8730     0.9130     0.8540 n3         1 6WZ      -0.734600
     30 CAT         -3.7340     1.4420     1.9710 c3         1 6WZ       0.109800
     31 CBH         -5.1210     2.0550     1.6000 c3         1 6WZ       0.296000
     32 FAG         -5.5690     2.8460     2.6030 f          1 6WZ      -0.117000
     33 FAH         -5.0490     2.8140     0.4810 f          1 6WZ      -0.117000
     34 FAF         -6.0520     1.0940     1.3980 f          1 6WZ      -0.117000
     35 H1           2.6530     2.0430    -3.9740 hn         1 6WZ       0.346500
     36 H2           2.1420     3.8090     0.3650 ha         1 6WZ       0.142000
     37 H3           2.6310     2.9330     2.6330 ha         1 6WZ       0.128000
     38 H4           3.5520     0.6370     2.9140 ha         1 6WZ       0.120000
     39 H5           3.9590    -0.7860     0.9520 ha         1 6WZ       0.124000
     40 H6           4.0980    -1.9820    -2.5430 h1         1 6WZ       0.073200
     41 H7           4.7780    -1.6210    -0.9710 h1         1 6WZ       0.073200
     42 H8           1.1270    -1.2640    -1.7470 ha         1 6WZ       0.136000
     43 H9           4.1680    -3.7710     0.0270 ha         1 6WZ       0.120000
     44 H10          2.3940    -5.1390     1.1050 ha         1 6WZ       0.138000
     45 H11          0.2820    -0.4700     0.5020 h1         1 6WZ       0.069200
     46 H12         -0.4060     0.7800    -0.5380 h1         1 6WZ       0.069200
     47 H13         -1.6660    -0.4360     1.9790 h1         1 6WZ       0.031700
     48 H14         -0.6030     2.4140     1.5310 hc         1 6WZ       0.046367
     49 H15         -1.1680     1.7180     3.0650 hc         1 6WZ       0.046367
     50 H16          0.2990     1.1100     2.3210 hc         1 6WZ       0.046367
     51 H17         -2.5780     0.2070    -1.8540 h1         1 6WZ       0.073200
     52 H18         -3.2460    -1.4190    -1.6910 h1         1 6WZ       0.073200
     53 H19         -4.5110     0.2310    -0.3610 h1         1 6WZ       0.048200
     54 H20         -3.8030    -1.0110     0.6810 h1         1 6WZ       0.048200
     55 H22         -3.9110     0.6460     2.7070 h1         1 6WZ       0.070200
     56 H23         -3.2000     2.2390     2.5030 h1         1 6WZ       0.070200
@<TRIPOS>BOND
     1     1     2 2   
     2     2     3 1   
     3     2    12 1   
     4     3     4 1   
     5     3    35 1   
     6     4     5 2   
     7     4     6 1   
     8     6     7 ar  
     9     6    11 ar  
    10     7     8 ar  
    11     7    36 1   
    12     8     9 ar  
    13     8    37 1   
    14     9    10 ar  
    15     9    38 1   
    16    10    11 ar  
    17    10    39 1   
    18    11    12 1   
    19    12    13 1   
    20    13    14 1   
    21    13    40 1   
    22    13    41 1   
    23    14    15 ar  
    24    14    16 ar  
    25    15    20 ar  
    26    15    42 1   
    27    16    17 ar  
    28    16    43 1   
    29    17    18 ar  
    30    17    44 1   
    31    18    19 1   
    32    18    20 ar  
    33    20    21 1   
    34    21    22 2   
    35    21    23 1   
    36    23    24 1   
    37    23    27 1   
    38    24    25 1   
    39    24    45 1   
    40    24    46 1   
    41    25    26 1   
    42    25    29 1   
    43    25    47 1   
    44    26    48 1   
    45    26    49 1   
    46    26    50 1   
    47    27    28 1   
    48    27    51 1   
    49    27    52 1   
    50    28    29 1   
    51    28    53 1   
    52    28    54 1   
    53    29    30 1   
    54    30    31 1   
    55    30    55 1   
    56    30    56 1   
    57    31    32 1   
    58    31    33 1   
    59    31    34 1   
@<TRIPOS>SUBSTRUCTURE
     1 6WZ         1 TEMP              0 ****  ****    0 ROOT
