@<TRIPOS>MOLECULE
6X0
   70    74     1     0     0
SMALL
No Charge or Current Charge


@<TRIPOS>ATOM
      1 C01         -5.4980    -2.5850     1.4690 c3         1 6X0      -0.110100
      2 C02         -4.9490    -2.5490     0.0300 c3         1 6X0       0.077600
      3 N03         -3.5120    -2.2300    -0.0290 na         1 6X0       0.072000
      4 C04         -2.4860    -3.1650    -0.0750 cc         1 6X0      -0.119000
      5 C05         -2.4150    -4.5730    -0.0800 cc         1 6X0      -0.116000
      6 C06         -1.0950    -4.9870    -0.1310 cd         1 6X0      -0.206000
      7 S07          0.0570    -3.6000    -0.1710 ss         1 6X0       0.183000
      8 C08         -1.3330    -2.5220    -0.1150 cd         1 6X0      -0.219000
      9 C09         -1.5400    -1.1390    -0.0930 cd         1 6X0      -0.104000
     10 C10         -2.9190    -0.9370    -0.0360 cc         1 6X0      -0.219600
     11 C11         -3.5710     0.4010     0.0100 c          1 6X0       0.644700
     12 O12         -4.7860     0.5540     0.0700 o          1 6X0      -0.592100
     13 N13         -2.6640     1.4510    -0.0040 ns         1 6X0      -0.166000
     14 C14         -2.8190     2.8670    -0.0200 ca         1 6X0      -0.014000
     15 C15         -4.0420     3.4770    -0.3680 ca         1 6X0      -0.107000
     16 C16         -4.1500     4.8730    -0.4040 ca         1 6X0      -0.092000
     17 C17         -3.0390     5.6740    -0.1140 ca         1 6X0      -0.098000
     18 C18         -1.7940     5.0930     0.2170 ca         1 6X0      -0.048300
     19 C19         -1.6910     3.6750     0.2830 ca         1 6X0      -0.118300
     20 C20         -0.3800     2.9870     0.6980 c3         1 6X0       0.204900
     21 O21          0.1960     2.3720    -0.4680 os         1 6X0      -0.354100
     22 C22          1.2340     1.4680    -0.3890 ca         1 6X0       0.082100
     23 C23          1.6240     0.8180    -1.5710 ca         1 6X0      -0.129500
     24 C24          2.6410    -0.1530    -1.5460 ca         1 6X0      -0.140500
     25 C25          3.2790    -0.4820    -0.3390 ca         1 6X0       0.118100
     26 C26          2.8970     0.1770     0.8520 ca         1 6X0      -0.140500
     27 C27          1.8780     1.1490     0.8270 ca         1 6X0      -0.129500
     28 O28          4.2610    -1.4490    -0.3720 os         1 6X0      -0.345100
     29 C29          4.9560    -1.8760     0.8120 c3         1 6X0       0.165600
     30 C30          5.9660    -2.9690     0.3980 c5         1 6X0      -0.102700
     31 C31          6.8220    -3.5320     1.5610 c5         1 6X0      -0.112400
     32 C32          7.9180    -4.2430     0.7430 c5         1 6X0       0.134800
     33 N33          8.3250    -3.1860    -0.2080 n7         1 6X0      -0.828400
     34 C34          7.0600    -2.5060    -0.6140 c5         1 6X0       0.139800
     35 C35         -0.5780     5.9880     0.5120 c3         1 6X0       0.200900
     36 O36         -0.7820     7.3270     0.0220 os         1 6X0      -0.452000
     37 C37          0.3160     8.2230     0.2610 c3         1 6X0       0.146900
     38 H1          -6.5660    -2.8330     1.4640 hc         1 6X0       0.050700
     39 H2          -4.9710    -3.3410     2.0640 hc         1 6X0       0.050700
     40 H3          -5.3720    -1.6110     1.9570 hc         1 6X0       0.050700
     41 H4          -5.1060    -3.5290    -0.4380 h1         1 6X0       0.064200
     42 H5          -5.5050    -1.8130    -0.5620 h1         1 6X0       0.064200
     43 H6          -3.2820    -5.2270    -0.0470 ha         1 6X0       0.137000
     44 H7          -0.7160    -6.0010    -0.1470 h4         1 6X0       0.145000
     45 H8          -0.7580    -0.3880    -0.1130 ha         1 6X0       0.146000
     46 H9          -1.6990     1.1530    -0.0340 hn         1 6X0       0.172000
     47 H10         -4.9150     2.8860    -0.6270 ha         1 6X0       0.132000
     48 H11         -5.0980     5.3360    -0.6690 ha         1 6X0       0.117000
     49 H12         -3.1540     6.7540    -0.1540 ha         1 6X0       0.135000
     50 H13          0.3270     3.6860     1.1580 h1         1 6X0       0.047200
     51 H14         -0.6140     2.2290     1.4560 h1         1 6X0       0.047200
     52 H15          1.1270     1.0580    -2.5080 ha         1 6X0       0.125500
     53 H16          2.9320    -0.6580    -2.4630 ha         1 6X0       0.126000
     54 H17          3.3730    -0.0530     1.8000 ha         1 6X0       0.126000
     55 H18          1.6030     1.6370     1.7570 ha         1 6X0       0.125500
     56 H19          5.4940    -1.0370     1.2720 h1         1 6X0       0.034200
     57 H20          4.2540    -2.2910     1.5470 h1         1 6X0       0.034200
     58 H21          5.3750    -3.7790    -0.0470 hc         1 6X0       0.075700
     59 H22          7.2370    -2.7400     2.1970 hc         1 6X0       0.048700
     60 H23          6.2630    -4.2210     2.2040 hc         1 6X0       0.048700
     61 H24          8.7570    -4.5820     1.3680 h1         1 6X0       0.054700
     62 H25          7.5140    -5.1180     0.2120 h1         1 6X0       0.054700
     63 H26          8.8920    -2.5060     0.3130 hn         1 6X0       0.399000
     64 H28          6.7720    -2.7810    -1.6390 h1         1 6X0       0.063700
     65 H29          7.1930    -1.4140    -0.5980 h1         1 6X0       0.063700
     66 H30         -0.4030     6.0010     1.5960 h1         1 6X0       0.033700
     67 H31          0.3110     5.5580     0.0310 h1         1 6X0       0.033700
     68 H32          0.0890     9.2200    -0.1380 h1         1 6X0       0.031033
     69 H33          0.5110     8.3220     1.3370 h1         1 6X0       0.031033
     70 H34          1.2300     7.8600    -0.2270 h1         1 6X0       0.031033
@<TRIPOS>BOND
     1     1     2 1   
     2     1    38 1   
     3     1    39 1   
     4     1    40 1   
     5     2     3 1   
     6     2    41 1   
     7     2    42 1   
     8     3     4 1   
     9     3    10 1   
    10     4     5 1   
    11     4     8 2   
    12     5     6 2   
    13     5    43 1   
    14     6     7 1   
    15     6    44 1   
    16     7     8 1   
    17     8     9 1   
    18     9    10 2   
    19     9    45 1   
    20    10    11 1   
    21    11    12 2   
    22    11    13 1   
    23    13    14 1   
    24    13    46 1   
    25    14    15 ar  
    26    14    19 ar  
    27    15    16 ar  
    28    15    47 1   
    29    16    17 ar  
    30    16    48 1   
    31    17    18 ar  
    32    17    49 1   
    33    18    19 ar  
    34    18    35 1   
    35    19    20 1   
    36    20    21 1   
    37    20    50 1   
    38    20    51 1   
    39    21    22 1   
    40    22    23 ar  
    41    22    27 ar  
    42    23    24 ar  
    43    23    52 1   
    44    24    25 ar  
    45    24    53 1   
    46    25    26 ar  
    47    25    28 1   
    48    26    27 ar  
    49    26    54 1   
    50    27    55 1   
    51    28    29 1   
    52    29    30 1   
    53    29    56 1   
    54    29    57 1   
    55    30    31 1   
    56    30    34 1   
    57    30    58 1   
    58    31    32 1   
    59    31    59 1   
    60    31    60 1   
    61    32    33 1   
    62    32    61 1   
    63    32    62 1   
    64    33    34 1   
    65    33    63 1   
    66    34    64 1   
    67    34    65 1   
    68    35    36 1   
    69    35    66 1   
    70    35    67 1   
    71    36    37 1   
    72    37    68 1   
    73    37    69 1   
    74    37    70 1   
@<TRIPOS>SUBSTRUCTURE
     1 6X0         1 TEMP              0 ****  ****    0 ROOT
