@<TRIPOS>MOLECULE
6X0
   70    74     1     0     0
SMALL
bcc


@<TRIPOS>ATOM
      1 C01         -4.5090    -2.6500     1.6920 c3         1 6X0      -0.110100
      2 C02         -4.0880    -2.3810     0.2580 c3         1 6X0       0.048300
      3 N03         -2.6690    -2.0780     0.1420 na         1 6X0      -0.000100
      4 C04         -1.7100    -3.0350     0.0680 cc         1 6X0      -0.068300
      5 C05         -1.6580    -4.4570     0.0570 cc         1 6X0      -0.134000
      6 C06         -0.3700    -4.8770    -0.0490 cd         1 6X0      -0.079100
      7 S07          0.7930    -3.5900    -0.1410 ss         1 6X0      -0.106800
      8 C08         -0.4690    -2.4210    -0.0340 cd         1 6X0      -0.074100
      9 C09         -0.6750    -1.0360    -0.0250 cd         1 6X0      -0.122000
     10 C10         -2.0440    -0.8520     0.0860 cc         1 6X0      -0.168900
     11 C11         -2.7550     0.4310     0.2130 c          1 6X0       0.711700
     12 O12         -3.8140     0.5560     0.8030 o          1 6X0      -0.592100
     13 N13         -2.0970     1.4730    -0.3670 ns         1 6X0      -0.492100
     14 C14         -2.4720     2.8290    -0.2720 ca         1 6X0       0.078600
     15 C15         -3.7650     3.2300    -0.5870 ca         1 6X0      -0.125000
     16 C16         -4.0910     4.5730    -0.5220 ca         1 6X0      -0.110000
     17 C17         -3.1390     5.5180    -0.1680 ca         1 6X0      -0.116000
     18 C18         -1.8410     5.1270     0.1450 ca         1 6X0      -0.048300
     19 C19         -1.5090     3.7680     0.1150 ca         1 6X0      -0.118300
     20 C20         -0.1460     3.2770     0.5100 c3         1 6X0       0.181700
     21 O21          0.5700     2.9190    -0.6690 os         1 6X0      -0.330900
     22 C22          1.4290     1.8680    -0.5960 ca         1 6X0       0.082100
     23 C23          1.6830     1.1830    -1.7860 ca         1 6X0      -0.147500
     24 C24          2.4740     0.0530    -1.7890 ca         1 6X0      -0.158500
     25 C25          3.0330    -0.4300    -0.6020 ca         1 6X0       0.118100
     26 C26          2.8130     0.2740     0.5760 ca         1 6X0      -0.158500
     27 C27          2.0220     1.4220     0.5760 ca         1 6X0      -0.147500
     28 O28          3.7520    -1.5650    -0.6970 os         1 6X0      -0.321900
     29 C29          4.2670    -2.1480     0.4860 c3         1 6X0       0.142400
     30 C30          4.9790    -3.4360     0.1190 c5         1 6X0      -0.102700
     31 C31          5.5270    -4.1180     1.3910 c5         1 6X0      -0.112400
     32 C32          7.0620    -4.0360     1.2490 c5         1 6X0       0.134800
     33 N33          7.3490    -3.0430     0.2210 n7         1 6X0      -0.773200
     34 C34          6.2480    -3.1810    -0.7190 c5         1 6X0       0.139800
     35 C35         -0.7970     6.1450     0.5310 c3         1 6X0       0.177700
     36 O36         -1.3180     7.4370     0.4350 os         1 6X0      -0.405600
     37 C37         -0.3880     8.4210     0.8130 c3         1 6X0       0.123700
     38 H1          -5.5670    -2.9080     1.7230 hc         1 6X0       0.050700
     39 H2          -3.9490    -3.4820     2.1190 hc         1 6X0       0.050700
     40 H3          -4.3540    -1.7710     2.3160 hc         1 6X0       0.050700
     41 H4          -4.2810    -3.2550    -0.3650 h1         1 6X0       0.064200
     42 H5          -4.6600    -1.5620    -0.1680 h1         1 6X0       0.064200
     43 H6          -2.5020    -5.1280     0.1240 ha         1 6X0       0.155000
     44 H7          -0.0240    -5.8990    -0.0790 h4         1 6X0       0.163000
     45 H8           0.0760    -0.2640    -0.0460 ha         1 6X0       0.164000
     46 H9          -1.2740     1.2620    -0.9090 hn         1 6X0       0.338500
     47 H10         -4.5030     2.5030    -0.8960 ha         1 6X0       0.150000
     48 H11         -5.0950     4.8920    -0.7690 ha         1 6X0       0.135000
     49 H12         -3.4140     6.5620    -0.1440 ha         1 6X0       0.153000
     50 H13          0.4140     4.0240     1.0770 h1         1 6X0       0.047200
     51 H14         -0.2620     2.4080     1.1660 h1         1 6X0       0.047200
     52 H15          1.2320     1.5280    -2.7090 ha         1 6X0       0.143500
     53 H16          2.6460    -0.4810    -2.7160 ha         1 6X0       0.144000
     54 H17          3.2360    -0.0530     1.5160 ha         1 6X0       0.144000
     55 H18          1.8750     1.9400     1.5140 ha         1 6X0       0.143500
     56 H19          4.9620    -1.4580     0.9850 h1         1 6X0       0.034200
     57 H20          3.4540    -2.3550     1.1920 h1         1 6X0       0.034200
     58 H21          4.2760    -4.0840    -0.4100 hc         1 6X0       0.075700
     59 H22          5.1870    -3.6010     2.2920 hc         1 6X0       0.048700
     60 H23          5.1840    -5.1490     1.4760 hc         1 6X0       0.048700
     61 H24          7.5650    -3.7790     2.1820 h1         1 6X0       0.054700
     62 H25          7.4560    -5.0030     0.9240 h1         1 6X0       0.054700
     63 H26          7.3110    -2.1200     0.6380 hn         1 6X0       0.343800
     64 H28          6.4360    -4.0440    -1.3650 h1         1 6X0       0.063700
     65 H29          6.1740    -2.3070    -1.3670 h1         1 6X0       0.063700
     66 H30         -0.4480     5.9470     1.5560 h1         1 6X0       0.033700
     67 H31          0.0830     6.0310    -0.1200 h1         1 6X0       0.033700
     68 H32         -0.8780     9.3910     0.7330 h1         1 6X0       0.031033
     69 H33         -0.0470     8.2880     1.8460 h1         1 6X0       0.031033
     70 H34          0.4950     8.4240     0.1630 h1         1 6X0       0.031033
@<TRIPOS>BOND
     1     1     2 1   
     2     1    38 1   
     3     1    39 1   
     4     1    40 1   
     5     2     3 1   
     6     2    41 1   
     7     2    42 1   
     8     3     4 1   
     9     3    10 1   
    10     4     5 1   
    11     4     8 2   
    12     5     6 2   
    13     5    43 1   
    14     6     7 1   
    15     6    44 1   
    16     7     8 1   
    17     8     9 1   
    18     9    10 2   
    19     9    45 1   
    20    10    11 1   
    21    11    12 2   
    22    11    13 1   
    23    13    14 1   
    24    13    46 1   
    25    14    15 ar  
    26    14    19 ar  
    27    15    16 ar  
    28    15    47 1   
    29    16    17 ar  
    30    16    48 1   
    31    17    18 ar  
    32    17    49 1   
    33    18    19 ar  
    34    18    35 1   
    35    19    20 1   
    36    20    21 1   
    37    20    50 1   
    38    20    51 1   
    39    21    22 1   
    40    22    23 ar  
    41    22    27 ar  
    42    23    24 ar  
    43    23    52 1   
    44    24    25 ar  
    45    24    53 1   
    46    25    26 ar  
    47    25    28 1   
    48    26    27 ar  
    49    26    54 1   
    50    27    55 1   
    51    28    29 1   
    52    29    30 1   
    53    29    56 1   
    54    29    57 1   
    55    30    31 1   
    56    30    34 1   
    57    30    58 1   
    58    31    32 1   
    59    31    59 1   
    60    31    60 1   
    61    32    33 1   
    62    32    61 1   
    63    32    62 1   
    64    33    34 1   
    65    33    63 1   
    66    34    64 1   
    67    34    65 1   
    68    35    36 1   
    69    35    66 1   
    70    35    67 1   
    71    36    37 1   
    72    37    68 1   
    73    37    69 1   
    74    37    70 1   
@<TRIPOS>SUBSTRUCTURE
     1 6X0         1 TEMP              0 ****  ****    0 ROOT
