@<TRIPOS>MOLECULE
6X1
   30    31     1     0     0
SMALL
No Charge or Current Charge


@<TRIPOS>ATOM
      1 CAA          3.1070    -0.4390     0.3560 ca         1 6X1       0.016000
      2 CAB          4.2040     0.4670     0.2990 ca         1 6X1      -0.201600
      3 NAC          1.7900     0.0560     0.1470 ns         1 6X1      -0.187000
      4 CAD          3.3550    -1.8090     0.6010 ca         1 6X1      -0.178000
      5 CAE          5.5130    -0.0260     0.5120 ca         1 6X1      -0.060000
      6 CAF          4.0230     1.9520     0.0320 c          1 6X1       0.724600
      7 CAG          0.5330    -0.4810     0.3640 c          1 6X1       0.665100
      8 CAH          4.6610    -2.2800     0.8050 ca         1 6X1      -0.102000
      9 CAI          5.7390    -1.3880     0.7630 ca         1 6X1      -0.175000
     10 OAJ          3.0990     2.3160    -0.6810 o          1 6X1      -0.704000
     11 OAK          4.8250     2.7280     0.5310 o          1 6X1      -0.704000
     12 NAL         -0.4690     0.3840    -0.0530 ns         1 6X1      -0.159000
     13 OAM          0.3290    -1.5760     0.8760 o          1 6X1      -0.655100
     14 CAN         -1.8870     0.2790    -0.0450 ca         1 6X1       0.049000
     15 CAO         -2.6250     1.3990    -0.4750 ca         1 6X1      -0.168000
     16 CAP         -2.5860    -0.8790     0.3600 ca         1 6X1      -0.168000
     17 CAQ         -4.0280     1.3670    -0.4970 ca         1 6X1       0.159000
     18 CAR         -3.9900    -0.9060     0.3360 ca         1 6X1       0.159000
     19 CAS         -4.7140     0.2150    -0.0910 ca         1 6X1      -0.160000
     20 ClAT        -4.9280     2.7780    -1.0360 cl         1 6X1      -0.217500
     21 ClAU        -4.8460    -2.3550     0.8430 cl         1 6X1      -0.217500
     22 HNAC         1.7830     0.9880    -0.2520 hn         1 6X1       0.237000
     23 HAD          2.5460    -2.5310     0.6270 ha         1 6X1       0.129000
     24 HAE          6.3660     0.6500     0.4750 ha         1 6X1       0.128000
     25 HAH          4.8360    -3.3370     0.9930 ha         1 6X1       0.087000
     26 HAI          6.7520    -1.7510     0.9210 ha         1 6X1       0.091000
     27 HNAL        -0.1310     1.2550    -0.4390 hn         1 6X1       0.168000
     28 HAO         -2.1120     2.3030    -0.7950 ha         1 6X1       0.153000
     29 HAP         -2.0660    -1.7710     0.6920 ha         1 6X1       0.153000
     30 HAS         -5.8000     0.1910    -0.1080 ha         1 6X1       0.134000
@<TRIPOS>BOND
     1     1     2 ar  
     2     1     3 1   
     3     1     4 ar  
     4     2     5 ar  
     5     2     6 1   
     6     3     7 1   
     7     3    22 1   
     8     4     8 ar  
     9     4    23 1   
    10     5     9 ar  
    11     5    24 1   
    12     6    10 1   
    13     6    11 1   
    14     7    12 1   
    15     7    13 2   
    16     8     9 ar  
    17     8    25 1   
    18     9    26 1   
    19    12    14 1   
    20    12    27 1   
    21    14    15 ar  
    22    14    16 ar  
    23    15    17 ar  
    24    15    28 1   
    25    16    18 ar  
    26    16    29 1   
    27    17    19 ar  
    28    17    20 1   
    29    18    19 ar  
    30    18    21 1   
    31    19    30 1   
@<TRIPOS>SUBSTRUCTURE
     1 6X1         1 TEMP              0 ****  ****    0 ROOT
