@<TRIPOS>MOLECULE
6X1
   30    31     1     0     0
SMALL
abcg2


@<TRIPOS>ATOM
      1 CAA          3.0270    -0.4160     0.3700 ca         1 6X1       0.016000
      2 CAB          4.1460     0.4460     0.2950 ca         1 6X1      -0.201600
      3 NAC          1.7810     0.1550     0.1430 ns         1 6X1      -0.187000
      4 CAD          3.2250    -1.7740     0.6490 ca         1 6X1      -0.178000
      5 CAE          5.4130    -0.0890     0.5100 ca         1 6X1      -0.060000
      6 CAF          4.0410     1.9360    -0.0070 c          1 6X1       0.724600
      7 CAG          0.5540    -0.4110     0.2440 c          1 6X1       0.665100
      8 CAH          4.5030    -2.2670     0.8560 ca         1 6X1      -0.102000
      9 CAI          5.6080    -1.4300     0.7920 ca         1 6X1      -0.175000
     10 OAJ          2.8860     2.4140    -0.1890 o          1 6X1      -0.704000
     11 OAK          5.0920     2.5860    -0.0560 o          1 6X1      -0.704000
     12 NAL         -0.4450     0.4940    -0.0560 ns         1 6X1      -0.159000
     13 OAM          0.3240    -1.5670     0.5580 o          1 6X1      -0.655100
     14 CAN         -1.8150     0.3030    -0.0490 ca         1 6X1       0.049000
     15 CAO         -2.5960     1.3890    -0.4630 ca         1 6X1      -0.168000
     16 CAP         -2.4490    -0.8780     0.3460 ca         1 6X1      -0.168000
     17 CAQ         -3.9710     1.2810    -0.4770 ca         1 6X1       0.159000
     18 CAR         -3.8320    -0.9350     0.3120 ca         1 6X1       0.159000
     19 CAS         -4.6280     0.1220    -0.0930 ca         1 6X1      -0.160000
     20 CLAT        -4.9100     2.6400    -0.9930 cl         1 6X1      -0.217500
     21 CLAU        -4.6030    -2.4060     0.8050 cl         1 6X1      -0.217500
     22 HNAC         1.9080     1.1760    -0.0510 hn         1 6X1       0.237000
     23 HAD          2.3860    -2.4460     0.7020 ha         1 6X1       0.129000
     24 HAE          6.2640     0.5760     0.4540 ha         1 6X1       0.128000
     25 HAH          4.6300    -3.3210     1.0690 ha         1 6X1       0.087000
     26 HAI          6.6050    -1.8180     0.9560 ha         1 6X1       0.091000
     27 HNAL        -0.1520     1.4120    -0.3550 hn         1 6X1       0.168000
     28 HAO         -2.1220     2.3120    -0.7730 ha         1 6X1       0.153000
     29 HAP         -1.8840    -1.7340     0.6730 ha         1 6X1       0.153000
     30 HAS         -5.7050     0.0480    -0.1110 ha         1 6X1       0.134000
@<TRIPOS>BOND
     1     1     2 ar  
     2     1     3 1   
     3     1     4 ar  
     4     2     5 ar  
     5     2     6 1   
     6     3     7 1   
     7     3    22 1   
     8     4     8 ar  
     9     4    23 1   
    10     5     9 ar  
    11     5    24 1   
    12     6    10 1   
    13     6    11 1   
    14     7    12 1   
    15     7    13 2   
    16     8     9 ar  
    17     8    25 1   
    18     9    26 1   
    19    12    14 1   
    20    12    27 1   
    21    14    15 ar  
    22    14    16 ar  
    23    15    17 ar  
    24    15    28 1   
    25    16    18 ar  
    26    16    29 1   
    27    17    19 ar  
    28    17    20 1   
    29    18    19 ar  
    30    18    21 1   
    31    19    30 1   
@<TRIPOS>SUBSTRUCTURE
     1 6X1         1 TEMP              0 ****  ****    0 ROOT
