@<TRIPOS>MOLECULE
6X2
   59    62     1     0     0
SMALL
bcc


@<TRIPOS>ATOM
      1 OAE          2.8790     3.3100    -0.3810 o          1 6X2      -0.634500
      2 CAZ          3.5170     2.3570     0.0180 c          1 6X2       0.834500
      3 NAT          4.2260     2.4260     1.1940 ns         1 6X2      -0.600500
      4 CAY          4.9760     1.4440     1.7880 c          1 6X2       0.741100
      5 OAD          5.5590     1.6450     2.8340 o          1 6X2      -0.596500
      6 CBA          4.9920     0.1810     1.0530 ca         1 6X2      -0.214600
      7 CAK          5.7110    -0.9010     1.5560 ca         1 6X2      -0.033000
      8 CAG          5.7370    -2.1010     0.8790 ca         1 6X2      -0.168000
      9 CAH          5.0300    -2.2160    -0.3140 ca         1 6X2      -0.064000
     10 CAL          4.3110    -1.1530    -0.8290 ca         1 6X2      -0.184000
     11 CBB          4.2860     0.0690    -0.1510 ca         1 6X2       0.121600
     12 NBF          3.5830     1.1600    -0.6500 n          1 6X2      -0.372000
     13 CAR          2.8900     1.0560    -1.9260 c3         1 6X2       0.149300
     14 CAV          1.6230     0.2410    -1.8610 ca         1 6X2      -0.129300
     15 CAM          0.7750     0.3000    -0.7620 ca         1 6X2      -0.046000
     16 CAI          1.2740    -0.5670    -2.9380 ca         1 6X2      -0.090000
     17 CAJ          0.1000    -1.3060    -2.9260 ca         1 6X2      -0.172000
     18 CAW         -0.7180    -1.2220    -1.8190 ca         1 6X2       0.163900
     19 FAF         -1.8510    -1.9410    -1.7840 f          1 6X2      -0.135900
     20 CAX         -0.4120    -0.4210    -0.7340 ca         1 6X2      -0.179600
     21 CAU         -1.2660    -0.4270     0.5020 c          1 6X2       0.694700
     22 OAC         -0.8760    -1.0440     1.4840 o          1 6X2      -0.588100
     23 NBD         -2.4120     0.2670     0.4590 n          1 6X2      -0.463800
     24 CAS         -3.3500     0.2500     1.5610 c6         1 6X2       0.092000
     25 CBC         -4.7230    -0.2490     1.1130 c6         1 6X2       0.162500
     26 CAB         -5.6520    -0.2180     2.3210 c3         1 6X2      -0.091100
     27 CAO         -2.8950     1.0570    -0.6540 c6         1 6X2       0.102000
     28 CAQ         -4.2560     0.5550    -1.0930 c6         1 6X2       0.142800
     29 NBE         -5.2090     0.5710     0.0040 n3         1 6X2      -0.717600
     30 CAP         -6.5350     0.1740    -0.4500 c3         1 6X2       0.165800
     31 CAN         -7.1630     1.1350    -1.4530 c3         1 6X2      -0.078400
     32 CAA         -8.6060     0.7530    -1.7540 c3         1 6X2      -0.091100
     33 H1           4.1790     3.3190     1.6700 hn         1 6X2       0.346500
     34 H2           6.2510    -0.7830     2.4860 ha         1 6X2       0.158000
     35 H3           6.2970    -2.9400     1.2690 ha         1 6X2       0.144000
     36 H4           5.0330    -3.1520    -0.8570 ha         1 6X2       0.137000
     37 H5           3.7720    -1.3010    -1.7520 ha         1 6X2       0.143000
     38 H6           2.6610     2.0670    -2.2580 h1         1 6X2       0.078200
     39 H7           3.5730     0.6410    -2.6670 h1         1 6X2       0.078200
     40 H8           1.0250     0.9190     0.0910 ha         1 6X2       0.153000
     41 H9           1.9290    -0.6330    -3.7980 ha         1 6X2       0.136000
     42 H10         -0.1660    -1.9440    -3.7580 ha         1 6X2       0.155000
     43 H11         -2.9710    -0.3890     2.3540 h1         1 6X2       0.067700
     44 H12         -3.4460     1.2650     1.9640 h1         1 6X2       0.067700
     45 H13         -4.6010    -1.3000     0.7900 h1         1 6X2       0.033700
     46 H14         -5.9250     0.8070     2.5740 hc         1 6X2       0.042033
     47 H15         -6.5660    -0.7880     2.1670 hc         1 6X2       0.042033
     48 H16         -5.1490    -0.6570     3.1850 hc         1 6X2       0.042033
     49 H17         -2.9780     2.0990    -0.3300 h1         1 6X2       0.058200
     50 H18         -2.1980     1.0350    -1.4880 h1         1 6X2       0.058200
     51 H19         -4.6050     1.2080    -1.8940 h1         1 6X2       0.043200
     52 H20         -4.1500    -0.4550    -1.5230 h1         1 6X2       0.043200
     53 H22         -6.5230    -0.8440    -0.8780 h1         1 6X2       0.032700
     54 H23         -7.1990     0.1360     0.4140 h1         1 6X2       0.032700
     55 H24         -7.1200     2.1490    -1.0470 hc         1 6X2       0.044200
     56 H25         -6.6010     1.1500    -2.3890 hc         1 6X2       0.044200
     57 H26         -9.0460     1.4270    -2.4900 hc         1 6X2       0.033033
     58 H27         -8.6720    -0.2600    -2.1550 hc         1 6X2       0.033033
     59 H28         -9.2250     0.7940    -0.8560 hc         1 6X2       0.033033
@<TRIPOS>BOND
     1     1     2 2   
     2     2     3 1   
     3     2    12 1   
     4     3     4 1   
     5     3    33 1   
     6     4     5 2   
     7     4     6 1   
     8     6     7 ar  
     9     6    11 ar  
    10     7     8 ar  
    11     7    34 1   
    12     8     9 ar  
    13     8    35 1   
    14     9    10 ar  
    15     9    36 1   
    16    10    11 ar  
    17    10    37 1   
    18    11    12 1   
    19    12    13 1   
    20    13    14 1   
    21    13    38 1   
    22    13    39 1   
    23    14    15 ar  
    24    14    16 ar  
    25    15    20 ar  
    26    15    40 1   
    27    16    17 ar  
    28    16    41 1   
    29    17    18 ar  
    30    17    42 1   
    31    18    19 1   
    32    18    20 ar  
    33    20    21 1   
    34    21    22 2   
    35    21    23 1   
    36    23    24 1   
    37    23    27 1   
    38    24    25 1   
    39    24    43 1   
    40    24    44 1   
    41    25    26 1   
    42    25    29 1   
    43    25    45 1   
    44    26    46 1   
    45    26    47 1   
    46    26    48 1   
    47    27    28 1   
    48    27    49 1   
    49    27    50 1   
    50    28    29 1   
    51    28    51 1   
    52    28    52 1   
    53    29    30 1   
    54    30    31 1   
    55    30    53 1   
    56    30    54 1   
    57    31    32 1   
    58    31    55 1   
    59    31    56 1   
    60    32    57 1   
    61    32    58 1   
    62    32    59 1   
@<TRIPOS>SUBSTRUCTURE
     1 6X2         1 TEMP              0 ****  ****    0 ROOT
