@<TRIPOS>MOLECULE
6X2
   59    62     1     0     0
SMALL
No Charge or Current Charge


@<TRIPOS>ATOM
      1 OAE          3.2930     3.4080    -0.1850 o          1 6X2      -0.559000
      2 CAZ          3.8850     2.3980     0.1560 c          1 6X2       0.625000
      3 NAT          4.5720     2.3780     1.3260 ns         1 6X2      -0.466500
      4 CAY          5.2750     1.3580     1.8730 c          1 6X2       0.598600
      5 OAD          5.8470     1.4910     2.9440 o          1 6X2      -0.521000
      6 CBA          5.2950     0.0900     1.0830 ca         1 6X2      -0.214600
      7 CAK          5.9970    -1.0370     1.5610 ca         1 6X2      -0.015000
      8 CAG          6.0140    -2.2250     0.8160 ca         1 6X2      -0.150000
      9 CAH          5.3340    -2.2940    -0.4070 ca         1 6X2      -0.046000
     10 CAL          4.6350    -1.1740    -0.8860 ca         1 6X2      -0.166000
     11 CBB          4.6060     0.0310    -0.1450 ca         1 6X2       0.121600
     12 NBF          3.9020     1.2070    -0.6000 n          1 6X2      -0.305000
     13 CAR          3.1540     1.1790    -1.8860 c3         1 6X2       0.149300
     14 CAV          1.8540     0.3780    -1.8290 ca         1 6X2      -0.129300
     15 CAM          0.9460     0.5640    -0.7670 ca         1 6X2      -0.028000
     16 CAI          1.5520    -0.5500    -2.8430 ca         1 6X2      -0.072000
     17 CAJ          0.3670    -1.3000    -2.7780 ca         1 6X2      -0.154000
     18 CAW         -0.5310    -1.1160    -1.7160 ca         1 6X2       0.199000
     19 FAF         -1.6300    -1.9020    -1.6590 f          1 6X2      -0.171000
     20 CAX         -0.2630    -0.1620    -0.7100 ca         1 6X2      -0.179600
     21 CAU         -1.1910     0.0620     0.4550 c          1 6X2       0.627700
     22 OAC         -0.7380     0.1980     1.5850 o          1 6X2      -0.588100
     23 NBD         -2.5840     0.0240     0.2330 n          1 6X2      -0.396800
     24 CAS         -3.5070     0.0560     1.4030 c6         1 6X2       0.092000
     25 CBC         -4.9890    -0.3110     1.0780 c6         1 6X2       0.162500
     26 CAB         -5.8290    -0.1760     2.3820 c3         1 6X2      -0.091100
     27 CAO         -3.1570     0.7120    -0.9580 c6         1 6X2       0.102000
     28 CAQ         -4.6280     0.3240    -1.2530 c6         1 6X2       0.142800
     29 NBE         -5.5240     0.4950    -0.0700 n3         1 6X2      -0.717600
     30 CAP         -6.9530     0.2060    -0.3900 c3         1 6X2       0.165800
     31 CAN         -7.5770     1.0990    -1.4890 c3         1 6X2      -0.078400
     32 CAA         -9.1010     0.9050    -1.6240 c3         1 6X2      -0.091100
     33 H1           4.5540     3.2340     1.8570 hn         1 6X2       0.346500
     34 H2           6.5300    -0.9950     2.5100 ha         1 6X2       0.140000
     35 H3           6.5560    -3.0930     1.1870 ha         1 6X2       0.126000
     36 H4           5.3470    -3.2150    -0.9860 ha         1 6X2       0.119000
     37 H5           4.1210    -1.2660    -1.8370 ha         1 6X2       0.125000
     38 H6           2.9140     2.1980    -2.2160 h1         1 6X2       0.078200
     39 H7           3.8110     0.7690    -2.6630 h1         1 6X2       0.078200
     40 H8           1.1720     1.2870     0.0140 ha         1 6X2       0.135000
     41 H9           2.2390    -0.7040    -3.6720 ha         1 6X2       0.118000
     42 H10          0.1460    -2.0360    -3.5470 ha         1 6X2       0.137000
     43 H11         -3.1360    -0.6390     2.1700 h1         1 6X2       0.067700
     44 H12         -3.4790     1.0640     1.8400 h1         1 6X2       0.067700
     45 H13         -5.0040    -1.3760     0.8010 h1         1 6X2       0.033700
     46 H14         -5.9800     0.8760     2.6510 hc         1 6X2       0.042033
     47 H15         -6.8130    -0.6490     2.2860 hc         1 6X2       0.042033
     48 H16         -5.3290    -0.6670     3.2250 hc         1 6X2       0.042033
     49 H17         -3.1120     1.7970    -0.7840 h1         1 6X2       0.058200
     50 H18         -2.5580     0.5120    -1.8550 h1         1 6X2       0.058200
     51 H19         -4.9620     0.9460    -2.0940 h1         1 6X2       0.043200
     52 H20         -4.6510    -0.7210    -1.5970 h1         1 6X2       0.043200
     53 H22         -7.0670    -0.8460    -0.6840 h1         1 6X2       0.032700
     54 H23         -7.5680     0.3570     0.5060 h1         1 6X2       0.032700
     55 H24         -7.3710     2.1510    -1.2610 hc         1 6X2       0.044200
     56 H25         -7.1170     0.8790    -2.4590 hc         1 6X2       0.044200
     57 H26         -9.5000     1.5510    -2.4160 hc         1 6X2       0.033033
     58 H27         -9.3380    -0.1350    -1.8780 hc         1 6X2       0.033033
     59 H28         -9.6090     1.1580    -0.6860 hc         1 6X2       0.033033
@<TRIPOS>BOND
     1     1     2 2   
     2     2     3 1   
     3     2    12 1   
     4     3     4 1   
     5     3    33 1   
     6     4     5 2   
     7     4     6 1   
     8     6     7 ar  
     9     6    11 ar  
    10     7     8 ar  
    11     7    34 1   
    12     8     9 ar  
    13     8    35 1   
    14     9    10 ar  
    15     9    36 1   
    16    10    11 ar  
    17    10    37 1   
    18    11    12 1   
    19    12    13 1   
    20    13    14 1   
    21    13    38 1   
    22    13    39 1   
    23    14    15 ar  
    24    14    16 ar  
    25    15    20 ar  
    26    15    40 1   
    27    16    17 ar  
    28    16    41 1   
    29    17    18 ar  
    30    17    42 1   
    31    18    19 1   
    32    18    20 ar  
    33    20    21 1   
    34    21    22 2   
    35    21    23 1   
    36    23    24 1   
    37    23    27 1   
    38    24    25 1   
    39    24    43 1   
    40    24    44 1   
    41    25    26 1   
    42    25    29 1   
    43    25    45 1   
    44    26    46 1   
    45    26    47 1   
    46    26    48 1   
    47    27    28 1   
    48    27    49 1   
    49    27    50 1   
    50    28    29 1   
    51    28    51 1   
    52    28    52 1   
    53    29    30 1   
    54    30    31 1   
    55    30    53 1   
    56    30    54 1   
    57    31    32 1   
    58    31    55 1   
    59    31    56 1   
    60    32    57 1   
    61    32    58 1   
    62    32    59 1   
@<TRIPOS>SUBSTRUCTURE
     1 6X2         1 TEMP              0 ****  ****    0 ROOT
