@<TRIPOS>MOLECULE
6X3
   63    67     1     0     0
SMALL
bcc


@<TRIPOS>ATOM
      1 C13         -2.9180     0.8600     0.0310 ca         1 6X3       0.086600
      2 C15         -0.9020     1.4730     1.2150 ca         1 6X3      -0.075000
      3 C16         -0.2030     1.5900     0.0170 ca         1 6X3      -0.122300
      4 C17         -0.8850     1.3290    -1.1640 ca         1 6X3      -0.075000
      5 C19          1.2500     1.9450     0.0120 c3         1 6X3       0.193700
      6 C21          3.3390     0.8190     0.1950 ca         1 6X3       0.104100
      7 N02         -7.6540     0.0130    -1.0620 na         1 6X3       0.004900
      8 C03         -8.6400    -0.6340    -0.3950 cc         1 6X3      -0.064300
      9 C04        -10.0370    -0.8480    -0.5560 cc         1 6X3      -0.137000
     10 C05        -10.5140    -1.6090     0.4630 cd         1 6X3      -0.073100
     11 S06         -9.3110    -2.0760     1.6240 ss         1 6X3      -0.099800
     12 C07         -8.0990    -1.2280     0.7390 cd         1 6X3      -0.078100
     13 C08         -6.7310    -0.9260     0.7730 cd         1 6X3      -0.117000
     14 C09         -6.4850    -0.1550    -0.3540 cc         1 6X3      -0.174900
     15 C10         -5.1970     0.3640    -0.8340 c          1 6X3       0.714700
     16 O11         -4.9960     0.6400    -2.0060 o          1 6X3      -0.589100
     17 N12         -4.2600     0.4920     0.1450 ns         1 6X3      -0.466100
     18 C14         -2.2370     1.1160     1.2250 ca         1 6X3      -0.173500
     19 C18         -2.2250     0.9700    -1.1750 ca         1 6X3      -0.173500
     20 O20          1.9880     0.7380     0.1440 os         1 6X3      -0.320900
     21 C22          4.0330    -0.3840     0.2910 ca         1 6X3      -0.153000
     22 C23          5.4180    -0.4090     0.3590 ca         1 6X3      -0.154500
     23 C24          6.1440     0.7810     0.3330 ca         1 6X3       0.113100
     24 C25          5.4490     1.9820     0.2270 ca         1 6X3      -0.154500
     25 C26          4.0630     2.0070     0.1580 ca         1 6X3      -0.153000
     26 O27          7.4910     0.8770     0.4230 os         1 6X3      -0.328900
     27 C28          8.3000    -0.2920     0.4330 c6         1 6X3       0.155100
     28 C29          8.4540    -0.8970    -0.9560 c6         1 6X3      -0.091900
     29 C30          9.4500    -2.0460    -0.9170 c6         1 6X3       0.166300
     30 N31         10.7370    -1.6120    -0.4090 n3         1 6X3      -0.714600
     31 C32         10.6140    -1.0730     0.9320 c6         1 6X3       0.166300
     32 C33          9.6620     0.1130     0.9670 c6         1 6X3      -0.091900
     33 C34         11.7080    -2.6810    -0.4570 c3         1 6X3       0.152100
     34 H1          -0.4040     1.6720     2.1550 ha         1 6X3       0.134500
     35 H2          -7.4800     1.7910    -2.1680 h1         1 6X3       0.060700
     36 H3          -7.3980     0.3070    -3.1320 h1         1 6X3       0.060700
     37 H4          -8.9370     0.8450    -2.4520 h1         1 6X3       0.060700
     38 H5          -0.3650     1.4140    -2.1110 ha         1 6X3       0.134500
     39 H6           1.5210     2.4560    -0.9190 h1         1 6X3       0.038700
     40 H7           1.4780     2.6250     0.8400 h1         1 6X3       0.038700
     41 H9         -11.5330    -1.9360     0.6040 h4         1 6X3       0.166000
     42 H10         -6.0030    -1.2530     1.4990 ha         1 6X3       0.157000
     43 H11         -4.5820     0.3690     1.0930 hn         1 6X3       0.324500
     44 H12         -2.7610     1.0340     2.1700 ha         1 6X3       0.147500
     45 H13         -2.7100     0.7800    -2.1180 ha         1 6X3       0.147500
     46 H14          3.4830    -1.3160     0.3140 ha         1 6X3       0.139500
     47 H15          5.9080    -1.3700     0.4330 ha         1 6X3       0.139500
     48 H16          5.9990     2.9140     0.2020 ha         1 6X3       0.139500
     49 H17          3.5730     2.9680     0.0760 ha         1 6X3       0.139500
     50 H18          7.8720    -1.0400     1.1140 h1         1 6X3       0.038700
     51 H19          7.5000    -1.2620    -1.3410 hc         1 6X3       0.061450
     52 H20          8.8110    -0.1240    -1.6430 hc         1 6X3       0.061450
     53 H21          9.0360    -2.8710    -0.3070 h1         1 6X3       0.032200
     54 H22          9.5840    -2.4430    -1.9250 h1         1 6X3       0.032200
     55 H24         10.2690    -1.8450     1.6450 h1         1 6X3       0.032200
     56 H25         11.6010    -0.7540     1.2760 h1         1 6X3       0.032200
     57 H26         10.0660     0.9240     0.3550 hc         1 6X3       0.061450
     58 H27          9.5750     0.4810     1.9920 hc         1 6X3       0.061450
     59 H28         11.8260    -3.0370    -1.4820 h1         1 6X3       0.031033
     60 H29         12.6800    -2.3220    -0.1140 h1         1 6X3       0.031033
     61 H30         11.4310    -3.5460     0.1670 h1         1 6X3       0.031033
     62 H8         -10.6510    -0.4750    -1.3630 ha         1 6X3       0.156000
     63 C01         -7.8670     0.7810    -2.2740 c3         1 6X3       0.033600
@<TRIPOS>BOND
     1     1    17 1   
     2     1    18 ar  
     3     1    19 ar  
     4     2     3 ar  
     5     2    18 ar  
     6     2    34 1   
     7     3     4 ar  
     8     3     5 1   
     9     4    19 ar  
    10     4    38 1   
    11     5    20 1   
    12     5    39 1   
    13     5    40 1   
    14     6    20 1   
    15     6    21 ar  
    16     6    25 ar  
    17     7     8 1   
    18     7    14 1   
    19     7    63 1   
    20     8     9 1   
    21     8    12 2   
    22     9    10 2   
    23     9    62 1   
    24    10    11 1   
    25    10    41 1   
    26    11    12 1   
    27    12    13 1   
    28    13    14 2   
    29    13    42 1   
    30    14    15 1   
    31    15    16 2   
    32    15    17 1   
    33    17    43 1   
    34    18    44 1   
    35    19    45 1   
    36    21    22 ar  
    37    21    46 1   
    38    22    23 ar  
    39    22    47 1   
    40    23    24 ar  
    41    23    26 1   
    42    24    25 ar  
    43    24    48 1   
    44    25    49 1   
    45    26    27 1   
    46    27    28 1   
    47    27    32 1   
    48    27    50 1   
    49    28    29 1   
    50    28    51 1   
    51    28    52 1   
    52    29    30 1   
    53    29    53 1   
    54    29    54 1   
    55    30    31 1   
    56    30    33 1   
    57    31    32 1   
    58    31    55 1   
    59    31    56 1   
    60    32    57 1   
    61    32    58 1   
    62    33    59 1   
    63    33    60 1   
    64    33    61 1   
    65    35    63 1   
    66    36    63 1   
    67    37    63 1   
@<TRIPOS>SUBSTRUCTURE
     1 6X3         1 TEMP              0 ****  ****    0 ROOT
