@<TRIPOS>MOLECULE
6X3
   63    67     1     0     0
SMALL
No Charge or Current Charge


@<TRIPOS>ATOM
      1 C13         -2.9610     0.9380     0.0330 ca         1 6X3      -0.006000
      2 C15         -0.9950     1.4600     1.3920 ca         1 6X3      -0.057000
      3 C16         -0.2260     1.6570     0.2310 ca         1 6X3      -0.122300
      4 C17         -0.8270     1.4890    -1.0290 ca         1 6X3      -0.057000
      5 C19          1.2430     2.0440     0.3380 c3         1 6X3       0.216900
      6 C21          3.4050     0.8630     0.4760 ca         1 6X3       0.104100
      7 N02         -7.7560    -0.3010    -1.3280 na         1 6X3       0.077000
      8 C03         -8.7900    -0.6020    -0.4500 cc         1 6X3      -0.115000
      9 C04        -10.1460    -0.9600    -0.5870 cc         1 6X3      -0.119000
     10 C05        -10.7210    -1.1480     0.6590 cd         1 6X3      -0.200000
     11 S06         -9.5500    -0.8720     2.0020 ss         1 6X3       0.190000
     12 C07         -8.3280    -0.5120     0.7860 cd         1 6X3      -0.223000
     13 C08         -6.9750    -0.1510     0.7830 cd         1 6X3      -0.099000
     14 C09         -6.6010    -0.0140    -0.5530 cc         1 6X3      -0.225600
     15 C10         -5.2390     0.3630    -1.0210 c          1 6X3       0.647700
     16 O11         -4.9570     0.4710    -2.2080 o          1 6X3      -0.589100
     17 N12         -4.3370     0.5760     0.0140 ns         1 6X3      -0.140000
     18 C14         -2.3510     1.1040     1.2910 ca         1 6X3      -0.155500
     19 C18         -2.1840     1.1330    -1.1300 ca         1 6X3      -0.155500
     20 O20          2.0280     0.8400     0.3810 os         1 6X3      -0.344100
     21 C22          4.0800    -0.3680     0.5120 ca         1 6X3      -0.135000
     22 C23          5.4830    -0.4130     0.6080 ca         1 6X3      -0.136500
     23 C24          6.2270     0.7880     0.6640 ca         1 6X3       0.113100
     24 C25          5.5480     2.0180     0.6370 ca         1 6X3      -0.136500
     25 C26          4.1450     2.0640     0.5410 ca         1 6X3      -0.135000
     26 O27          7.6060     0.8250     0.7670 os         1 6X3      -0.352100
     27 C28          8.4280    -0.3450     0.5620 c6         1 6X3       0.178300
     28 C29          8.4480    -0.7630    -0.9300 c6         1 6X3      -0.091900
     29 C30          9.4120    -1.9500    -1.1530 c6         1 6X3       0.166300
     30 N31         10.7860    -1.6300    -0.6790 n3         1 6X3      -0.714600
     31 C32         10.7970    -1.2500     0.7590 c6         1 6X3       0.166300
     32 C33          9.8680    -0.0450     1.0290 c6         1 6X3      -0.091900
     33 C34         11.7500    -2.7090    -0.9830 c3         1 6X3       0.152100
     34 H1          -0.5420     1.5820     2.3740 ha         1 6X3       0.116500
     35 H2          -7.6100     0.7150    -3.1670 h1         1 6X3       0.060700
     36 H3          -7.1480    -1.0140    -3.2150 h1         1 6X3       0.060700
     37 H4          -8.8710    -0.5500    -3.1070 h1         1 6X3       0.060700
     38 H5          -0.2420     1.6340    -1.9350 ha         1 6X3       0.116500
     39 H6           1.5240     2.6580    -0.5280 h1         1 6X3       0.038700
     40 H7           1.3990     2.6400     1.2460 h1         1 6X3       0.038700
     41 H9         -11.7430    -1.4270     0.8850 h4         1 6X3       0.148000
     42 H10         -6.3570    -0.0100     1.6650 ha         1 6X3       0.139000
     43 H11         -4.7340     0.4500     0.9340 hn         1 6X3       0.158000
     44 H12         -2.9290     0.9570     2.2000 ha         1 6X3       0.129500
     45 H13         -2.6070     1.0130    -2.1220 ha         1 6X3       0.129500
     46 H14          3.5120    -1.2940     0.4680 ha         1 6X3       0.121500
     47 H15          5.9670    -1.3840     0.6430 ha         1 6X3       0.121500
     48 H16          6.1160     2.9440     0.6880 ha         1 6X3       0.121500
     49 H17          3.6550     3.0330     0.5190 ha         1 6X3       0.121500
     50 H18          8.0440    -1.1700     1.1780 h1         1 6X3       0.038700
     51 H19          7.4440    -1.0440    -1.2710 hc         1 6X3       0.061450
     52 H20          8.7640     0.0860    -1.5500 hc         1 6X3       0.061450
     53 H21          9.0230    -2.8340    -0.6250 h1         1 6X3       0.032200
     54 H22          9.4270    -2.1940    -2.2260 h1         1 6X3       0.032200
     55 H24         10.4750    -2.1000     1.3800 h1         1 6X3       0.032200
     56 H25         11.8170    -0.9870     1.0750 h1         1 6X3       0.032200
     57 H26         10.2550     0.8410     0.5080 hc         1 6X3       0.061450
     58 H27          9.8720     0.1900     2.1020 hc         1 6X3       0.061450
     59 H28         11.7670    -2.9230    -2.0600 h1         1 6X3       0.031033
     60 H29         12.7650    -2.4180    -0.6810 h1         1 6X3       0.031033
     61 H30         11.4850    -3.6330    -0.4520 h1         1 6X3       0.031033
     62 H8         -10.6570    -1.0700    -1.5390 ha         1 6X3       0.138000
     63 C01         -7.8530    -0.2870    -2.7950 c3         1 6X3       0.062900
@<TRIPOS>BOND
     1     1    17 1   
     2     1    18 ar  
     3     1    19 ar  
     4     2     3 ar  
     5     2    18 ar  
     6     2    34 1   
     7     3     4 ar  
     8     3     5 1   
     9     4    19 ar  
    10     4    38 1   
    11     5    20 1   
    12     5    39 1   
    13     5    40 1   
    14     6    20 1   
    15     6    21 ar  
    16     6    25 ar  
    17     7     8 1   
    18     7    14 1   
    19     7    63 1   
    20     8     9 1   
    21     8    12 2   
    22     9    10 2   
    23     9    62 1   
    24    10    11 1   
    25    10    41 1   
    26    11    12 1   
    27    12    13 1   
    28    13    14 2   
    29    13    42 1   
    30    14    15 1   
    31    15    16 2   
    32    15    17 1   
    33    17    43 1   
    34    18    44 1   
    35    19    45 1   
    36    21    22 ar  
    37    21    46 1   
    38    22    23 ar  
    39    22    47 1   
    40    23    24 ar  
    41    23    26 1   
    42    24    25 ar  
    43    24    48 1   
    44    25    49 1   
    45    26    27 1   
    46    27    28 1   
    47    27    32 1   
    48    27    50 1   
    49    28    29 1   
    50    28    51 1   
    51    28    52 1   
    52    29    30 1   
    53    29    53 1   
    54    29    54 1   
    55    30    31 1   
    56    30    33 1   
    57    31    32 1   
    58    31    55 1   
    59    31    56 1   
    60    32    57 1   
    61    32    58 1   
    62    33    59 1   
    63    33    60 1   
    64    33    61 1   
    65    35    63 1   
    66    36    63 1   
    67    37    63 1   
@<TRIPOS>SUBSTRUCTURE
     1 6X3         1 TEMP              0 ****  ****    0 ROOT
