@<TRIPOS>MOLECULE
6X4
   70    69     1     0     0
SMALL
No Charge or Current Charge


@<TRIPOS>ATOM
      1 C18          6.9070    -0.8920     0.5990 c          1 6X4       0.567100
      2 C19          7.4120    -1.6700     1.8560 c3         1 6X4       0.094300
      3 C2           7.4480    -3.1920     1.6010 c3         1 6X4      -0.119100
      4 O6           7.6310    -0.6520    -0.3610 o          1 6X4      -0.635100
      5 O7           8.7340    -1.2410     2.2610 oh         1 6X4      -0.653000
      6 N6           5.6030    -0.4420     0.6600 ns         1 6X4      -0.472900
      7 C16          4.9100     0.3170    -0.4060 c3         1 6X4       0.022700
      8 C15          3.6770     1.0660     0.1790 c          1 6X4       0.595100
      9 O5           3.2660     0.8800     1.3200 o          1 6X4      -0.632100
     10 C17          4.5120    -0.6170    -1.5740 c3         1 6X4      -0.104100
     11 N5           3.0790     1.9650    -0.6830 ns         1 6X4      -0.450900
     12 C14          1.8660     2.7670    -0.3890 c3         1 6X4      -0.050300
     13 C20          2.0190     4.2100    -0.9620 c          1 6X4       0.719000
     14 O2           2.3580     4.3380    -2.1310 o          1 6X4      -0.709000
     15 C11          0.5770     2.0850    -0.9190 c3         1 6X4      -0.068400
     16 C10          0.2890     0.6910    -0.3050 c3         1 6X4      -0.148400
     17 C9          -1.0530     0.1310    -0.7860 c          1 6X4       0.600100
     18 O4          -1.2160    -0.3060    -1.9150 o          1 6X4      -0.594100
     19 O8           1.8760     5.1520    -0.1960 o          1 6X4      -0.709000
     20 N4          -2.0550     0.1310     0.1590 ns         1 6X4      -0.511900
     21 C4          -3.4340    -0.3690    -0.0530 c3         1 6X4       0.044700
     22 C3          -4.4620     0.5670     0.6500 c          1 6X4       0.591100
     23 O3          -4.1420     1.4220     1.4680 o          1 6X4      -0.571100
     24 C5          -3.5840    -1.8370     0.4340 c3         1 6X4      -0.087400
     25 C6          -2.6760    -2.8560    -0.2950 c3         1 6X4      -0.071400
     26 C7          -2.9200    -4.3120     0.1590 c3         1 6X4      -0.108400
     27 C8          -2.0100    -5.3150    -0.5670 c3         1 6X4       0.097600
     28 N2          -2.2820    -6.7190    -0.0960 nz         1 6X4      -0.974000
     29 N1          -5.7780     0.3760     0.2780 ns         1 6X4      -0.497900
     30 C1          -6.9360     1.1240     0.8170 c3         1 6X4       0.031700
     31 C13         -7.2870     0.6460     2.2480 c3         1 6X4      -0.109100
     32 C12         -8.1490     1.0310    -0.1580 c          1 6X4       0.601100
     33 O1          -8.1390     0.3780    -1.1910 o          1 6X4      -0.622100
     34 N3          -9.2630     1.7150     0.1880 nt         1 6X4      -0.596000
     35 H32          6.6980    -1.4790     2.6690 h1         1 6X4       0.082700
     36 H4           8.1410    -3.4380     0.7870 hc         1 6X4       0.042367
     37 H3           7.7680    -3.7290     2.5020 hc         1 6X4       0.042367
     38 H5           6.4520    -3.5570     1.3240 hc         1 6X4       0.042367
     39 H14          9.2500    -1.1050     1.4320 ho         1 6X4       0.466000
     40 H35          5.0830    -0.6430     1.5090 hn         1 6X4       0.344500
     41 H28          5.5950     1.0860    -0.7880 h1         1 6X4       0.085700
     42 H30          5.3920    -1.1200    -1.9910 hc         1 6X4       0.038367
     43 H29          3.8070    -1.3850    -1.2320 hc         1 6X4       0.038367
     44 H31          4.0350    -0.0510    -2.3830 hc         1 6X4       0.038367
     45 H34          3.5050     2.0720    -1.5970 hn         1 6X4       0.301500
     46 H27          1.7750     2.8710     0.7000 h1         1 6X4       0.057700
     47 H18         -0.2750     2.7450    -0.7080 hc         1 6X4       0.071200
     48 H17          0.6370     1.9940    -2.0110 hc         1 6X4       0.071200
     49 H15          1.0810    -0.0000    -0.6140 hc         1 6X4       0.048700
     50 H16          0.2850     0.7870     0.7870 hc         1 6X4       0.048700
     51 H33         -1.8300     0.5410     1.0590 hn         1 6X4       0.313500
     52 H6          -3.6630    -0.3300    -1.1260 h1         1 6X4       0.071700
     53 H7          -3.3780    -1.8780     1.5120 hc         1 6X4       0.058700
     54 H8          -4.6270    -2.1500     0.3050 hc         1 6X4       0.058700
     55 H9          -2.8450    -2.7810    -1.3770 hc         1 6X4       0.061700
     56 H10         -1.6230    -2.6040    -0.1160 hc         1 6X4       0.061700
     57 H11         -2.7510    -4.3870     1.2400 hc         1 6X4       0.064700
     58 H12         -3.9690    -4.5770    -0.0250 hc         1 6X4       0.064700
     59 H13         -2.1860    -5.2530    -1.6470 hx         1 6X4       0.108200
     60 H23         -0.9610    -5.0620    -0.3750 hx         1 6X4       0.108200
     61 HAO1        -1.6880    -7.4240    -0.5620 hn         1 6X4       0.510667
     62 H19         -2.1190    -6.8490     0.9150 hn         1 6X4       0.510667
     63 H20         -3.2530    -7.0250    -0.2640 hn         1 6X4       0.510667
     64 H1          -5.9570    -0.3260    -0.4340 hn         1 6X4       0.333500
     65 H2          -6.6670     2.1870     0.8670 h1         1 6X4       0.095700
     66 H25         -6.4220     0.7410     2.9150 hc         1 6X4       0.045700
     67 H26         -8.1020     1.2410     2.6750 hc         1 6X4       0.045700
     68 H24         -7.5980    -0.4060     2.2390 hc         1 6X4       0.045700
     69 H22         -9.2840     2.2570     1.0390 hn         1 6X4       0.321000
     70 H36        -10.0710     1.6770    -0.4150 hn         1 6X4       0.321000
@<TRIPOS>BOND
     1     1     2 1   
     2     1     4 2   
     3     1     6 1   
     4     2     3 1   
     5     2     5 1   
     6     2    35 1   
     7     3    36 1   
     8     3    37 1   
     9     3    38 1   
    10     5    39 1   
    11     6     7 1   
    12     6    40 1   
    13     7     8 1   
    14     7    10 1   
    15     7    41 1   
    16     8     9 2   
    17     8    11 1   
    18    10    42 1   
    19    10    43 1   
    20    10    44 1   
    21    11    12 1   
    22    11    45 1   
    23    12    13 1   
    24    12    15 1   
    25    12    46 1   
    26    13    14 1   
    27    13    19 1   
    28    15    16 1   
    29    15    47 1   
    30    15    48 1   
    31    16    17 1   
    32    16    49 1   
    33    16    50 1   
    34    17    18 2   
    35    17    20 1   
    36    20    21 1   
    37    20    51 1   
    38    21    22 1   
    39    21    24 1   
    40    21    52 1   
    41    22    23 2   
    42    22    29 1   
    43    24    25 1   
    44    24    53 1   
    45    24    54 1   
    46    25    26 1   
    47    25    55 1   
    48    25    56 1   
    49    26    27 1   
    50    26    57 1   
    51    26    58 1   
    52    27    28 1   
    53    27    59 1   
    54    27    60 1   
    55    28    61 1   
    56    28    62 1   
    57    28    63 1   
    58    29    30 1   
    59    29    64 1   
    60    30    31 1   
    61    30    32 1   
    62    30    65 1   
    63    31    66 1   
    64    31    67 1   
    65    31    68 1   
    66    32    33 2   
    67    32    34 1   
    68    34    69 1   
    69    34    70 1   
@<TRIPOS>SUBSTRUCTURE
     1 6X4         1 TEMP              0 ****  ****    0 ROOT
