@<TRIPOS>MOLECULE
6X4
   70    69     1     0     0
SMALL
abcg2


@<TRIPOS>ATOM
      1 C18          7.3690     0.4650    -0.8880 c          1 6X4       0.567100
      2 C19          8.7470     0.3280    -0.2420 c3         1 6X4       0.094300
      3 C2           9.0160    -1.1390     0.0860 c3         1 6X4      -0.119100
      4 O6           7.2680     0.6410    -2.0970 o          1 6X4      -0.635100
      5 O7           9.7230     0.8610    -1.0950 oh         1 6X4      -0.653000
      6 N6           6.3280     0.3430    -0.0620 ns         1 6X4      -0.472900
      7 C16          4.9520     0.3440    -0.5000 c3         1 6X4       0.022700
      8 C15          4.0790     0.6580     0.7130 c          1 6X4       0.595100
      9 O5           4.4730     0.4330     1.8510 o          1 6X4      -0.632100
     10 C17          4.5350    -1.0030    -1.0940 c3         1 6X4      -0.104100
     11 N5           2.8560     1.1000     0.4180 ns         1 6X4      -0.450900
     12 C14          1.9010     1.5150     1.4200 c3         1 6X4      -0.050300
     13 C20          2.1890     2.9400     1.9680 c          1 6X4       0.719000
     14 O2           3.1120     3.5830     1.4450 o          1 6X4      -0.709000
     15 C11          0.4870     1.4230     0.8520 c3         1 6X4      -0.068400
     16 C10          0.0980     0.0020     0.4560 c3         1 6X4      -0.148400
     17 C9          -1.2960    -0.0560    -0.1220 c          1 6X4       0.600100
     18 O4          -1.6540     0.6680    -1.0420 o          1 6X4      -0.594100
     19 O8           1.4400     3.3000     2.8970 o          1 6X4      -0.709000
     20 N4          -2.1200    -0.9690     0.4210 ns         1 6X4      -0.511900
     21 C4          -3.4910    -1.0850     0.0050 c3         1 6X4       0.044700
     22 C3          -4.2690     0.1920     0.3300 c          1 6X4       0.591100
     23 O3          -4.0270     0.8650     1.3180 o          1 6X4      -0.571100
     24 C5          -4.1580    -2.2700     0.7060 c3         1 6X4      -0.087400
     25 C6          -3.6050    -3.6170     0.2580 c3         1 6X4      -0.071400
     26 C7          -4.3080    -4.7730     0.9580 c3         1 6X4      -0.108400
     27 C8          -3.7790    -6.1050     0.4670 c3         1 6X4       0.097600
     28 N2          -4.4620    -7.2350     1.1490 nz         1 6X4      -0.974000
     29 N1          -5.2640     0.4540    -0.5290 ns         1 6X4      -0.497900
     30 C1          -6.2220     1.5140    -0.3380 c3         1 6X4       0.031700
     31 C13         -7.3000     1.1360     0.6830 c3         1 6X4      -0.109100
     32 C12         -6.8710     1.8180    -1.6850 c          1 6X4       0.601100
     33 O1          -6.8590     1.0070    -2.6000 o          1 6X4      -0.622100
     34 N3          -7.4730     3.0080    -1.7560 nt         1 6X4      -0.596000
     35 H32          8.7630     0.9090     0.6860 h1         1 6X4       0.082700
     36 H4           8.9300    -1.7640    -0.8040 hc         1 6X4       0.042367
     37 H3          10.0230    -1.2510     0.4870 hc         1 6X4       0.042367
     38 H5           8.3190    -1.5170     0.8340 hc         1 6X4       0.042367
     39 H14          9.4030     0.7470    -2.0000 ho         1 6X4       0.466000
     40 H35          6.4830     0.1960     0.9250 hn         1 6X4       0.344500
     41 H28          4.8220     1.1250    -1.2530 h1         1 6X4       0.085700
     42 H30          5.1700    -1.2600    -1.9400 hc         1 6X4       0.038367
     43 H29          4.6160    -1.7950    -0.3490 hc         1 6X4       0.038367
     44 H31          3.5050    -0.9700    -1.4490 hc         1 6X4       0.038367
     45 H34          2.6850     1.4020    -0.5290 hn         1 6X4       0.301500
     46 H27          1.9750     0.8170     2.2590 h1         1 6X4       0.057700
     47 H18         -0.2000     1.7940     1.6130 hc         1 6X4       0.071200
     48 H17          0.3900     2.0900    -0.0100 hc         1 6X4       0.071200
     49 H15          0.7810    -0.3790    -0.3090 hc         1 6X4       0.048700
     50 H16          0.1950    -0.6630     1.3170 hc         1 6X4       0.048700
     51 H33         -1.8250    -1.4590     1.2500 hn         1 6X4       0.313500
     52 H6          -3.5270    -1.2590    -1.0760 h1         1 6X4       0.071700
     53 H7          -4.0530    -2.1560     1.7900 hc         1 6X4       0.058700
     54 H8          -5.2290    -2.2360     0.4950 hc         1 6X4       0.058700
     55 H9          -3.7300    -3.7110    -0.8250 hc         1 6X4       0.061700
     56 H10         -2.5310    -3.6740     0.4520 hc         1 6X4       0.061700
     57 H11         -4.1610    -4.6930     2.0390 hc         1 6X4       0.064700
     58 H12         -5.3850    -4.7140     0.7760 hc         1 6X4       0.064700
     59 H13         -3.9480    -6.2350    -0.6000 hx         1 6X4       0.108200
     60 H23         -2.7160    -6.2160     0.6650 hx         1 6X4       0.108200
     61 HAO1        -4.1170    -8.1360     0.8220 hn         1 6X4       0.510667
     62 H19         -4.3200    -7.2110     2.1590 hn         1 6X4       0.510667
     63 H20         -5.4680    -7.2250     0.9860 hn         1 6X4       0.510667
     64 H1          -5.3960    -0.1420    -1.3330 hn         1 6X4       0.333500
     65 H2          -5.6980     2.4060     0.0120 h1         1 6X4       0.095700
     66 H25         -6.8430     0.9310     1.6490 hc         1 6X4       0.045700
     67 H26         -8.0180     1.9450     0.8190 hc         1 6X4       0.045700
     68 H24         -7.8400     0.2460     0.3600 hc         1 6X4       0.045700
     69 H22         -7.4600     3.6590    -0.9890 hn         1 6X4       0.321000
     70 H36         -7.9970     3.2680    -2.5760 hn         1 6X4       0.321000
@<TRIPOS>BOND
     1     1     2 1   
     2     1     4 2   
     3     1     6 1   
     4     2     3 1   
     5     2     5 1   
     6     2    35 1   
     7     3    36 1   
     8     3    37 1   
     9     3    38 1   
    10     5    39 1   
    11     6     7 1   
    12     6    40 1   
    13     7     8 1   
    14     7    10 1   
    15     7    41 1   
    16     8     9 2   
    17     8    11 1   
    18    10    42 1   
    19    10    43 1   
    20    10    44 1   
    21    11    12 1   
    22    11    45 1   
    23    12    13 1   
    24    12    15 1   
    25    12    46 1   
    26    13    14 1   
    27    13    19 1   
    28    15    16 1   
    29    15    47 1   
    30    15    48 1   
    31    16    17 1   
    32    16    49 1   
    33    16    50 1   
    34    17    18 2   
    35    17    20 1   
    36    20    21 1   
    37    20    51 1   
    38    21    22 1   
    39    21    24 1   
    40    21    52 1   
    41    22    23 2   
    42    22    29 1   
    43    24    25 1   
    44    24    53 1   
    45    24    54 1   
    46    25    26 1   
    47    25    55 1   
    48    25    56 1   
    49    26    27 1   
    50    26    57 1   
    51    26    58 1   
    52    27    28 1   
    53    27    59 1   
    54    27    60 1   
    55    28    61 1   
    56    28    62 1   
    57    28    63 1   
    58    29    30 1   
    59    29    64 1   
    60    30    31 1   
    61    30    32 1   
    62    30    65 1   
    63    31    66 1   
    64    31    67 1   
    65    31    68 1   
    66    32    33 2   
    67    32    34 1   
    68    34    69 1   
    69    34    70 1   
@<TRIPOS>SUBSTRUCTURE
     1 6X4         1 TEMP              0 ****  ****    0 ROOT
