@<TRIPOS>MOLECULE
6X5
   70    74     1     0     0
SMALL
abcg2


@<TRIPOS>ATOM
      1 C01          7.3950   -45.1780   -38.3390 c3         1 6X5      -0.092100
      2 C02          7.7290   -46.1050   -39.4860 c3         1 6X5       0.158600
      3 O03          8.5530   -47.1600   -38.9940 os         1 6X5      -0.458000
      4 C04          8.8820   -48.1130   -39.9990 c3         1 6X5       0.203900
      5 C05          9.6150   -49.2630   -39.3620 ca         1 6X5      -0.061300
      6 C06         10.9710   -49.4350   -39.6390 ca         1 6X5      -0.096000
      7 C07         11.6970   -50.4640   -39.0530 ca         1 6X5      -0.100000
      8 C08         11.0630   -51.3380   -38.1810 ca         1 6X5      -0.107000
      9 C09          9.7110   -51.1790   -37.9000 ca         1 6X5      -0.029000
     10 C10          8.9700   -50.1400   -38.4780 ca         1 6X5      -0.059300
     11 C11          7.5120   -49.9910   -38.1310 c3         1 6X5       0.207900
     12 O12          7.3860   -49.6640   -36.7310 os         1 6X5      -0.353100
     13 C13          6.4890   -50.3940   -35.9910 ca         1 6X5       0.087100
     14 C14          5.2430   -50.7900   -36.4760 ca         1 6X5      -0.119500
     15 C15          4.3910   -51.5350   -35.6720 ca         1 6X5      -0.142000
     16 C16          4.7630   -51.8880   -34.3750 ca         1 6X5       0.120100
     17 C17          6.0030   -51.4790   -33.8860 ca         1 6X5      -0.142000
     18 C18          6.8550   -50.7360   -34.6960 ca         1 6X5      -0.119500
     19 O19          3.8580   -52.6220   -33.6660 os         1 6X5      -0.358100
     20 C20          4.2280   -53.0870   -32.3650 c3         1 6X5       0.163600
     21 C21          3.0440   -53.7970   -31.7390 c5         1 6X5      -0.067700
     22 C22          2.4010   -54.9100   -32.6130 c5         1 6X5      -0.068400
     23 C23          0.9240   -54.5100   -32.7240 c5         1 6X5       0.146800
     24 N24          0.6950   -53.7260   -31.5020 n7         1 6X5      -0.857400
     25 C25          1.8720   -52.8560   -31.4030 c5         1 6X5       0.147800
     26 N26          9.1050   -52.0710   -36.9650 ns         1 6X5      -0.164000
     27 C27          8.2030   -53.0330   -37.2920 c          1 6X5       0.641700
     28 O28          7.8160   -53.2100   -38.4500 o          1 6X5      -0.611100
     29 C29          7.7300   -53.8420   -36.1600 cc         1 6X5      -0.206600
     30 C30          8.3470   -54.0600   -34.9310 cd         1 6X5      -0.100000
     31 C31          7.4920   -54.9100   -34.2060 cd         1 6X5      -0.218000
     32 C32          6.3790   -55.1870   -35.0100 cc         1 6X5      -0.117000
     33 N33          6.5280   -54.5360   -36.2000 na         1 6X5       0.073000
     34 C34          5.5380   -54.5510   -37.2670 c3         1 6X5       0.066900
     35 C35          5.4150   -56.0380   -34.4050 cc         1 6X5      -0.110000
     36 C36          5.8120   -56.3940   -33.1500 cd         1 6X5      -0.203000
     37 S37          7.3470   -55.7100   -32.6770 ss         1 6X5       0.163000
     38 H1           6.7630   -44.3600   -38.6920 hc         1 6X5       0.045700
     39 H2           6.8580   -45.7140   -37.5540 hc         1 6X5       0.045700
     40 H3           8.3030   -44.7490   -37.9100 hc         1 6X5       0.045700
     41 H4           8.2590   -45.5680   -40.2840 h1         1 6X5       0.018700
     42 H5           6.8170   -46.5320   -39.9220 h1         1 6X5       0.018700
     43 H6           9.5150   -47.6480   -40.7630 h1         1 6X5       0.029700
     44 H7           7.9660   -48.4550   -40.4960 h1         1 6X5       0.029700
     45 H8          11.4600   -48.7480   -40.3180 ha         1 6X5       0.116000
     46 H9          12.7490   -50.5840   -39.2750 ha         1 6X5       0.119000
     47 H10         11.6060   -52.1490   -37.7140 ha         1 6X5       0.122000
     48 H11          7.0440   -49.2030   -38.7130 h1         1 6X5       0.058700
     49 H12          6.9920   -50.9260   -38.3360 h1         1 6X5       0.058700
     50 H13          4.9330   -50.5260   -37.4780 ha         1 6X5       0.121000
     51 H14          3.4270   -51.8540   -36.0460 ha         1 6X5       0.122000
     52 H15          6.3300   -51.7530   -32.8950 ha         1 6X5       0.122000
     53 H16          7.8310   -50.4430   -34.3310 ha         1 6X5       0.121000
     54 H17          5.0830   -53.7610   -32.4540 h1         1 6X5       0.041700
     55 H18          4.5220   -52.2370   -31.7410 h1         1 6X5       0.041700
     56 H19          3.4160   -54.2400   -30.8130 hc         1 6X5       0.062700
     57 H20          2.5030   -55.8790   -32.1240 hc         1 6X5       0.049200
     58 H21          2.8700   -54.9810   -33.5910 hc         1 6X5       0.049200
     59 H22          0.7720   -53.9060   -33.6310 h1         1 6X5       0.037200
     60 H23          0.2490   -55.3660   -32.7710 h1         1 6X5       0.037200
     61 H24         -0.1590   -53.1840   -31.5660 hn         1 6X5       0.409000
     62 H26          1.9600   -52.4230   -30.4060 h1         1 6X5       0.042700
     63 H27          1.8390   -52.0340   -32.1330 h1         1 6X5       0.042700
     64 H28          9.3200   -51.9300   -35.9910 hn         1 6X5       0.165000
     65 H29          9.2990   -53.6630   -34.6200 ha         1 6X5       0.137000
     66 H30          4.6130   -54.9520   -36.8610 h1         1 6X5       0.060700
     67 H31          5.3600   -53.5420   -37.6260 h1         1 6X5       0.060700
     68 H32          5.8700   -55.1720   -38.0980 h1         1 6X5       0.060700
     69 H33          4.4890   -56.3650   -34.8550 ha         1 6X5       0.138000
     70 H34          5.2820   -57.0180   -32.4490 h4         1 6X5       0.149000
@<TRIPOS>BOND
     1     1     2 1   
     2     1    38 1   
     3     1    39 1   
     4     1    40 1   
     5     2     3 1   
     6     2    41 1   
     7     2    42 1   
     8     3     4 1   
     9     4     5 1   
    10     4    43 1   
    11     4    44 1   
    12     5     6 ar  
    13     5    10 ar  
    14     6     7 ar  
    15     6    45 1   
    16     7     8 ar  
    17     7    46 1   
    18     8     9 ar  
    19     8    47 1   
    20     9    10 ar  
    21     9    26 1   
    22    10    11 1   
    23    11    12 1   
    24    11    48 1   
    25    11    49 1   
    26    12    13 1   
    27    13    14 ar  
    28    13    18 ar  
    29    14    15 ar  
    30    14    50 1   
    31    15    16 ar  
    32    15    51 1   
    33    16    17 ar  
    34    16    19 1   
    35    17    18 ar  
    36    17    52 1   
    37    18    53 1   
    38    19    20 1   
    39    20    21 1   
    40    20    54 1   
    41    20    55 1   
    42    21    22 1   
    43    21    25 1   
    44    21    56 1   
    45    22    23 1   
    46    22    57 1   
    47    22    58 1   
    48    23    24 1   
    49    23    59 1   
    50    23    60 1   
    51    24    25 1   
    52    24    61 1   
    53    25    62 1   
    54    25    63 1   
    55    26    27 1   
    56    26    64 1   
    57    27    28 2   
    58    27    29 1   
    59    29    30 2   
    60    29    33 1   
    61    30    31 1   
    62    30    65 1   
    63    31    32 2   
    64    31    37 1   
    65    32    33 1   
    66    32    35 1   
    67    33    34 1   
    68    34    66 1   
    69    34    67 1   
    70    34    68 1   
    71    35    36 2   
    72    35    69 1   
    73    36    37 1   
    74    36    70 1   
@<TRIPOS>SUBSTRUCTURE
     1 6X5         1 TEMP              0 ****  ****    0 ROOT
