@<TRIPOS>MOLECULE
6X5
   70    74     1     0     0
SMALL
No Charge or Current Charge


@<TRIPOS>ATOM
      1 C01          8.0910   -44.9220   -38.0270 c3         1 6X5      -0.092100
      2 C02          8.1000   -45.8040   -39.2850 c3         1 6X5       0.158600
      3 O03          8.7970   -47.0160   -38.9590 os         1 6X5      -0.458000
      4 C04          8.8800   -47.9630   -40.0360 c3         1 6X5       0.203900
      5 C05          9.6130   -49.2120   -39.5430 ca         1 6X5      -0.061300
      6 C06         10.9400   -49.4110   -39.9750 ca         1 6X5      -0.096000
      7 C07         11.6690   -50.5320   -39.5590 ca         1 6X5      -0.100000
      8 C08         11.0740   -51.4780   -38.7160 ca         1 6X5      -0.107000
      9 C09          9.7450   -51.3170   -38.2880 ca         1 6X5      -0.029000
     10 C10          9.0020   -50.1610   -38.6750 ca         1 6X5      -0.059300
     11 C11          7.5740   -49.9400   -38.1410 c3         1 6X5       0.207900
     12 O12          7.6010   -50.0040   -36.6990 os         1 6X5      -0.353100
     13 C13          6.5730   -50.5450   -35.9550 ca         1 6X5       0.087100
     14 C14          5.3030   -50.8410   -36.4970 ca         1 6X5      -0.119500
     15 C15          4.3340   -51.4800   -35.7020 ca         1 6X5      -0.142000
     16 C16          4.6170   -51.8260   -34.3710 ca         1 6X5       0.120100
     17 C17          5.8750   -51.5000   -33.8200 ca         1 6X5      -0.142000
     18 C18          6.8420   -50.8590   -34.6130 ca         1 6X5      -0.119500
     19 O19          3.6410   -52.4860   -33.6540 os         1 6X5      -0.358100
     20 C20          3.8550   -52.9270   -32.3000 c3         1 6X5       0.163600
     21 C21          2.6120   -53.7140   -31.8230 c5         1 6X5      -0.067700
     22 C22          2.2630   -54.9860   -32.6410 c5         1 6X5      -0.068400
     23 C23          0.8080   -55.2890   -32.1730 c5         1 6X5       0.146800
     24 N24          0.2880   -54.0250   -31.5810 n7         1 6X5      -0.857400
     25 C25          1.2630   -52.9690   -31.9400 c5         1 6X5       0.147800
     26 N26          9.2150   -52.3120   -37.4240 ns         1 6X5      -0.164000
     27 C27          8.0620   -53.0710   -37.5470 c          1 6X5       0.641700
     28 O28          7.4170   -53.1270   -38.5890 o          1 6X5      -0.611100
     29 C29          7.6730   -53.7960   -36.3100 cc         1 6X5      -0.206600
     30 C30          8.4010   -53.7920   -35.1220 cd         1 6X5      -0.100000
     31 C31          7.6730   -54.5600   -34.2040 cd         1 6X5      -0.218000
     32 C32          6.5630   -55.0190   -34.7570 cc         1 6X5      -0.117000
     33 N33          6.5100   -54.5720   -36.0700 na         1 6X5       0.073000
     34 C34          5.4160   -54.8240   -37.0180 c3         1 6X5       0.066900
     35 C35          5.7260   -55.7940   -33.9300 cc         1 6X5      -0.110000
     36 C36          6.2740   -55.9100   -32.6650 cd         1 6X5      -0.203000
     37 S37          7.8430   -55.0350   -32.5180 ss         1 6X5       0.163000
     38 H1           7.5660   -43.9810   -38.2280 hc         1 6X5       0.045700
     39 H2           7.5810   -45.4320   -37.2010 hc         1 6X5       0.045700
     40 H3           9.1150   -44.6840   -37.7140 hc         1 6X5       0.045700
     41 H4           8.6040   -45.2730   -40.1030 h1         1 6X5       0.018700
     42 H5           7.0670   -46.0190   -39.5890 h1         1 6X5       0.018700
     43 H6           9.4210   -47.5270   -40.8860 h1         1 6X5       0.029700
     44 H7           7.8790   -48.2400   -40.3950 h1         1 6X5       0.029700
     45 H8          11.4130   -48.6850   -40.6330 ha         1 6X5       0.116000
     46 H9          12.6950   -50.6690   -39.8930 ha         1 6X5       0.119000
     47 H10         11.6460   -52.3480   -38.4000 ha         1 6X5       0.122000
     48 H11          7.1510   -48.9800   -38.4550 h1         1 6X5       0.058700
     49 H12          6.9370   -50.7190   -38.5710 h1         1 6X5       0.058700
     50 H13          5.0530   -50.5920   -37.5240 ha         1 6X5       0.121000
     51 H14          3.3610   -51.7220   -36.1240 ha         1 6X5       0.122000
     52 H15          6.1260   -51.7510   -32.7940 ha         1 6X5       0.122000
     53 H16          7.8200   -50.6340   -34.1950 ha         1 6X5       0.121000
     54 H17          4.7340   -53.5810   -32.2400 h1         1 6X5       0.041700
     55 H18          4.0150   -52.0680   -31.6360 h1         1 6X5       0.041700
     56 H19          2.8050   -53.9780   -30.7760 hc         1 6X5       0.062700
     57 H20          2.9460   -55.8190   -32.4390 hc         1 6X5       0.049200
     58 H21          2.2910   -54.7970   -33.7210 hc         1 6X5       0.049200
     59 H22          0.1870   -55.6180   -33.0190 h1         1 6X5       0.037200
     60 H23          0.7920   -56.0890   -31.4200 h1         1 6X5       0.037200
     61 H24         -0.6430   -53.8000   -31.9580 hn         1 6X5       0.409000
     62 H26          1.1970   -52.1040   -31.2650 h1         1 6X5       0.042700
     63 H27          1.0910   -52.6140   -32.9670 h1         1 6X5       0.042700
     64 H28          9.6980   -52.4070   -36.5420 hn         1 6X5       0.165000
     65 H29          9.3410   -53.2870   -34.9220 ha         1 6X5       0.137000
     66 H30          4.6170   -55.3920   -36.5280 h1         1 6X5       0.060700
     67 H31          5.0120   -53.8690   -37.3710 h1         1 6X5       0.060700
     68 H32          5.7970   -55.3980   -37.8710 h1         1 6X5       0.060700
     69 H33          4.7840   -56.2290   -34.2520 ha         1 6X5       0.138000
     70 H34          5.8710   -56.4400   -31.8110 h4         1 6X5       0.149000
@<TRIPOS>BOND
     1     1     2 1   
     2     1    38 1   
     3     1    39 1   
     4     1    40 1   
     5     2     3 1   
     6     2    41 1   
     7     2    42 1   
     8     3     4 1   
     9     4     5 1   
    10     4    43 1   
    11     4    44 1   
    12     5     6 ar  
    13     5    10 ar  
    14     6     7 ar  
    15     6    45 1   
    16     7     8 ar  
    17     7    46 1   
    18     8     9 ar  
    19     8    47 1   
    20     9    10 ar  
    21     9    26 1   
    22    10    11 1   
    23    11    12 1   
    24    11    48 1   
    25    11    49 1   
    26    12    13 1   
    27    13    14 ar  
    28    13    18 ar  
    29    14    15 ar  
    30    14    50 1   
    31    15    16 ar  
    32    15    51 1   
    33    16    17 ar  
    34    16    19 1   
    35    17    18 ar  
    36    17    52 1   
    37    18    53 1   
    38    19    20 1   
    39    20    21 1   
    40    20    54 1   
    41    20    55 1   
    42    21    22 1   
    43    21    25 1   
    44    21    56 1   
    45    22    23 1   
    46    22    57 1   
    47    22    58 1   
    48    23    24 1   
    49    23    59 1   
    50    23    60 1   
    51    24    25 1   
    52    24    61 1   
    53    25    62 1   
    54    25    63 1   
    55    26    27 1   
    56    26    64 1   
    57    27    28 2   
    58    27    29 1   
    59    29    30 2   
    60    29    33 1   
    61    30    31 1   
    62    30    65 1   
    63    31    32 2   
    64    31    37 1   
    65    32    33 1   
    66    32    35 1   
    67    33    34 1   
    68    34    66 1   
    69    34    67 1   
    70    34    68 1   
    71    35    36 2   
    72    35    69 1   
    73    36    37 1   
    74    36    70 1   
@<TRIPOS>SUBSTRUCTURE
     1 6X5         1 TEMP              0 ****  ****    0 ROOT
