@<TRIPOS>MOLECULE
6X6
   22    22     1     0     0
SMALL
No Charge or Current Charge


@<TRIPOS>ATOM
      1 C01          3.6980    -0.3450     0.4110 c3         1 6X6       0.154900
      2 O02          2.3140    -0.7320     0.3450 os         1 6X6      -0.337100
      3 C03          1.2770     0.1780     0.2110 ca         1 6X6       0.081100
      4 C04         -0.0860    -0.2620     0.1500 ca         1 6X6       0.087100
      5 O05         -0.4910    -1.5940     0.1970 os         1 6X6      -0.338100
      6 C06          0.3910    -2.7220     0.3290 c3         1 6X6       0.161900
      7 C07         -1.1160     0.6980     0.0160 ca         1 6X6      -0.100600
      8 C08         -0.8050     2.0690    -0.0680 ca         1 6X6      -0.113000
      9 C09          0.5250     2.4990    -0.0080 ca         1 6X6      -0.115000
     10 C10          1.5590     1.5640     0.1320 ca         1 6X6      -0.221000
     11 C11         -2.5580     0.2710    -0.0470 c          1 6X6       0.724600
     12 O12         -3.1000    -0.0980     0.9870 o          1 6X6      -0.714500
     13 H1           3.9990     0.1830    -0.5030 h1         1 6X6       0.024033
     14 H2           3.8800     0.3070     1.2740 h1         1 6X6       0.024033
     15 H3           4.3340    -1.2330     0.5150 h1         1 6X6       0.024033
     16 H4          -0.1900    -3.6530     0.3430 h1         1 6X6       0.025367
     17 H5           1.0880    -2.7760    -0.5160 h1         1 6X6       0.025367
     18 H6           0.9590    -2.6690     1.2670 h1         1 6X6       0.025367
     19 H7          -1.6040     2.8000    -0.1750 ha         1 6X6       0.122000
     20 H8           0.7550     3.5600    -0.0700 ha         1 6X6       0.085000
     21 H9           2.5770     1.9390     0.1750 ha         1 6X6       0.089000
     22 O1          -3.1530     0.4190    -1.1060 o          1 6X6      -0.714500
@<TRIPOS>BOND
     1     1     2 1   
     2     1    13 1   
     3     1    14 1   
     4     1    15 1   
     5     2     3 1   
     6     3     4 ar  
     7     3    10 ar  
     8     4     5 1   
     9     4     7 ar  
    10     5     6 1   
    11     6    16 1   
    12     6    17 1   
    13     6    18 1   
    14     7     8 ar  
    15     7    11 1   
    16     8     9 ar  
    17     8    19 1   
    18     9    10 ar  
    19     9    20 1   
    20    10    21 1   
    21    11    12 1   
    22    11    22 1   
@<TRIPOS>SUBSTRUCTURE
     1 6X6         1 TEMP              0 ****  ****    0 ROOT
