@<TRIPOS>MOLECULE
6X6
   22    22     1     0     0
SMALL
abcg2


@<TRIPOS>ATOM
      1 C01          3.7600    -0.2810    -0.0850 c3         1 6X6       0.154900
      2 O02          2.4210    -0.7240    -0.1490 os         1 6X6      -0.337100
      3 C03          1.4380     0.1890    -0.0170 ca         1 6X6       0.081100
      4 C04          0.1250    -0.3060    -0.1240 ca         1 6X6       0.087100
      5 O05         -0.0480    -1.6320    -0.3790 os         1 6X6      -0.338100
      6 C06          0.0200    -2.4730     0.7620 c3         1 6X6       0.161900
      7 C07         -0.9630     0.5550    -0.0430 ca         1 6X6      -0.100600
      8 C08         -0.7280     1.9220     0.1350 ca         1 6X6      -0.113000
      9 C09          0.5580     2.4040     0.2810 ca         1 6X6      -0.115000
     10 C10          1.6500     1.5450     0.2000 ca         1 6X6      -0.221000
     11 C11         -2.4010     0.0660    -0.1660 c          1 6X6       0.724600
     12 O12         -2.7290    -0.9200     0.5160 o          1 6X6      -0.714500
     13 H1           3.9860     0.4530    -0.8640 h1         1 6X6       0.024033
     14 H2           4.0020     0.1560     0.8870 h1         1 6X6       0.024033
     15 H3           4.3840    -1.1570    -0.2400 h1         1 6X6       0.024033
     16 H4          -0.1530    -3.4920     0.4190 h1         1 6X6       0.025367
     17 H5           1.0000    -2.4340     1.2440 h1         1 6X6       0.025367
     18 H6          -0.7500    -2.2120     1.4880 h1         1 6X6       0.025367
     19 H7          -1.5670     2.6040     0.1750 ha         1 6X6       0.122000
     20 H8           0.7290     3.4610     0.4420 ha         1 6X6       0.085000
     21 H9           2.6490     1.9460     0.3000 ha         1 6X6       0.089000
     22 O1          -3.1300     0.7330    -0.9240 o          1 6X6      -0.714500
@<TRIPOS>BOND
     1     1     2 1   
     2     1    13 1   
     3     1    14 1   
     4     1    15 1   
     5     2     3 1   
     6     3     4 ar  
     7     3    10 ar  
     8     4     5 1   
     9     4     7 ar  
    10     5     6 1   
    11     6    16 1   
    12     6    17 1   
    13     6    18 1   
    14     7     8 ar  
    15     7    11 1   
    16     8     9 ar  
    17     8    19 1   
    18     9    10 ar  
    19     9    20 1   
    20    10    21 1   
    21    11    12 1   
    22    11    22 1   
@<TRIPOS>SUBSTRUCTURE
     1 6X6         1 TEMP              0 ****  ****    0 ROOT
