@<TRIPOS>MOLECULE
6X7
   19    19     1     0     0
SMALL
abcg2


@<TRIPOS>ATOM
      1 C10          1.5180     1.2940     0.0320 ca         1 6X7      -0.200000
      2 O12         -0.5220    -2.2780    -0.0880 oh         1 6X7      -0.500100
      3 C01         -0.6100     2.5910     0.0380 c3         1 6X7      -0.038800
      4 C02          0.1260     1.2800     0.0090 ca         1 6X7      -0.001300
      5 C03         -0.5730     0.0710    -0.0440 ca         1 6X7      -0.167600
      6 C04         -2.0930     0.0300    -0.1030 c          1 6X7       0.728600
      7 O05         -2.5960    -0.4560    -1.1330 o          1 6X7      -0.717000
      8 C07          0.1630    -1.1140    -0.0590 ca         1 6X7       0.182100
      9 C08          1.5550    -1.1100    -0.0130 ca         1 6X7      -0.325000
     10 C09          2.2320     0.1020     0.0230 ca         1 6X7       0.132100
     11 O11          3.5810     0.1720     0.0550 oh         1 6X7      -0.557100
     12 O1          -2.6990     0.4960     0.8800 o          1 6X7      -0.717000
     13 H1           2.0520     2.2370     0.0590 ha         1 6X7       0.103000
     14 H2           0.0880    -3.0230    -0.0660 ho         1 6X7       0.428000
     15 H3          -1.1950     2.6910     0.9520 hc         1 6X7       0.039700
     16 H4           0.0820     3.4300    -0.0190 hc         1 6X7       0.039700
     17 H5          -1.3100     2.6790    -0.7950 hc         1 6X7       0.039700
     18 H6           2.1070    -2.0460    -0.0120 ha         1 6X7       0.086000
     19 H7           3.9620    -0.7130     0.0470 ho         1 6X7       0.444000
@<TRIPOS>BOND
     1     1     4 ar  
     2     1    10 ar  
     3     1    13 1   
     4     2     8 1   
     5     2    14 1   
     6     3     4 1   
     7     3    15 1   
     8     3    16 1   
     9     3    17 1   
    10     4     5 ar  
    11     5     6 1   
    12     5     8 ar  
    13     6     7 1   
    14     6    12 1   
    15     8     9 ar  
    16     9    10 ar  
    17     9    18 1   
    18    10    11 1   
    19    11    19 1   
@<TRIPOS>SUBSTRUCTURE
     1 6X7         1 TEMP              0 ****  ****    0 ROOT
