@<TRIPOS>MOLECULE
6X7
   19    19     1     0     0
SMALL
No Charge or Current Charge


@<TRIPOS>ATOM
      1 C10          1.5230     1.3080     0.0160 ca         1 6X7      -0.200000
      2 O12         -0.4810    -2.3380    -0.0400 oh         1 6X7      -0.500100
      3 C01         -0.6420     2.6300    -0.0200 c3         1 6X7      -0.038800
      4 C02          0.1140     1.3050    -0.0120 ca         1 6X7      -0.001300
      5 C03         -0.5750     0.0700    -0.0310 ca         1 6X7      -0.167600
      6 C04         -2.0730     0.0310    -0.0600 c          1 6X7       0.728600
      7 O05         -2.6280     0.0520    -1.1500 o          1 6X7      -0.717000
      8 C07          0.1540    -1.1350    -0.0220 ca         1 6X7       0.182100
      9 C08          1.5560    -1.1190     0.0050 ca         1 6X7      -0.325000
     10 C09          2.2340     0.1030     0.0240 ca         1 6X7       0.132100
     11 O11          3.5920     0.1150     0.0500 oh         1 6X7      -0.557100
     12 O1          -2.6700     0.0420     1.0080 o          1 6X7      -0.717000
     13 H1           2.0660     2.2490     0.0300 ha         1 6X7       0.103000
     14 H2           0.2050    -3.0370    -0.0300 ho         1 6X7       0.428000
     15 H3          -1.2980     2.7150     0.8540 hc         1 6X7       0.039700
     16 H4           0.0400     3.4880    -0.0030 hc         1 6X7       0.039700
     17 H5          -1.2630     2.7230    -0.9190 hc         1 6X7       0.039700
     18 H6           2.1120    -2.0520     0.0120 ha         1 6X7       0.086000
     19 H7           3.9000    -0.8160     0.0520 ho         1 6X7       0.444000
@<TRIPOS>BOND
     1     1     4 ar  
     2     1    10 ar  
     3     1    13 1   
     4     2     8 1   
     5     2    14 1   
     6     3     4 1   
     7     3    15 1   
     8     3    16 1   
     9     3    17 1   
    10     4     5 ar  
    11     5     6 1   
    12     5     8 ar  
    13     6     7 1   
    14     6    12 1   
    15     8     9 ar  
    16     9    10 ar  
    17     9    18 1   
    18    10    11 1   
    19    11    19 1   
@<TRIPOS>SUBSTRUCTURE
     1 6X7         1 TEMP              0 ****  ****    0 ROOT
