@<TRIPOS>MOLECULE
6X9
   28    29     1     0     0
SMALL
No Charge or Current Charge


@<TRIPOS>ATOM
      1 C1           1.1500    -1.2580    -0.1780 c          1 6X9       0.559000
      2 C3          -0.6950     0.2420    -0.0570 cc         1 6X9       0.291000
      3 C5           1.4280     1.3030    -0.1810 cc         1 6X9       0.179800
      4 C6           1.9620     0.0050    -0.2260 cd         1 6X9      -0.275400
      5 N2          -0.2140    -1.0170    -0.0910 n          1 6X9       0.130000
      6 C7          -2.0540     0.3120     0.0280 cd         1 6X9      -0.213000
      7 C8          -2.4020    -1.0750     0.0470 cd         1 6X9       0.334300
      8 C11          3.4640    -0.2370    -0.3240 c3         1 6X9      -0.009200
      9 C12          4.1150    -0.4510     1.0560 c3         1 6X9      -0.089100
     10 C13          2.2390     2.5710    -0.2150 c3         1 6X9      -0.069900
     11 C14         -3.7800    -1.6670     0.1320 c3         1 6X9      -0.132400
     12 C15         -2.9050     1.4420     0.0850 ch         1 6X9       0.367000
     13 N4           0.0280     1.4210    -0.0980 na         1 6X9      -0.788000
     14 N16         -3.5840     2.3910     0.1310 n1         1 6X9      -0.476000
     15 N9          -1.3220    -1.8480    -0.0230 nc         1 6X9      -0.475800
     16 O10          1.6210    -2.3920    -0.2080 o          1 6X9      -0.461000
     17 H2           3.6840    -1.1050    -0.9590 hc         1 6X9       0.053200
     18 H3           3.9660     0.6020    -0.8200 hc         1 6X9       0.053200
     19 H4           5.1950    -0.6080     0.9490 hc         1 6X9       0.038700
     20 H5           3.9570     0.4230     1.6990 hc         1 6X9       0.038700
     21 H6           3.6890    -1.3290     1.5560 hc         1 6X9       0.038700
     22 H7           1.6200     3.4550    -0.0230 hc         1 6X9       0.065700
     23 H8           3.0280     2.5520     0.5450 hc         1 6X9       0.065700
     24 H9           2.7120     2.7030    -1.1950 hc         1 6X9       0.065700
     25 H10         -4.3940    -1.3440    -0.7160 hc         1 6X9       0.059033
     26 H11         -3.7490    -2.7630     0.1270 hc         1 6X9       0.059033
     27 H12         -4.2820    -1.3500     1.0540 hc         1 6X9       0.059033
     28 H1          -0.4330     2.3300    -0.0670 hn         1 6X9       0.532000
@<TRIPOS>BOND
     1     1     4 1   
     2     1     5 1   
     3     1    16 2   
     4     2     5 1   
     5     2     6 2   
     6     2    13 1   
     7     3     4 2   
     8     3    10 1   
     9     3    13 1   
    10     4     8 1   
    11     5    15 1   
    12     6     7 1   
    13     6    12 1   
    14     7    11 1   
    15     7    15 2   
    16     8     9 1   
    17     8    17 1   
    18     8    18 1   
    19     9    19 1   
    20     9    20 1   
    21     9    21 1   
    22    10    22 1   
    23    10    23 1   
    24    10    24 1   
    25    11    25 1   
    26    11    26 1   
    27    11    27 1   
    28    12    14 3   
    29    13    28 1   
@<TRIPOS>SUBSTRUCTURE
     1 6X9         1 TEMP              0 ****  ****    0 ROOT
