@<TRIPOS>MOLECULE
6X9
   28    29     1     0     0
SMALL
abcg2


@<TRIPOS>ATOM
      1 C1           1.1040    -1.1300    -0.1990 c          1 6X9       0.559000
      2 C3          -0.7420     0.4560    -0.0600 cc         1 6X9       0.291000
      3 C5           1.4600     1.2880    -0.2060 cc         1 6X9       0.179800
      4 C6           1.9710     0.0250    -0.2570 cd         1 6X9      -0.275400
      5 N2          -0.2590    -0.8030    -0.1030 n          1 6X9       0.130000
      6 C7          -2.1200     0.3450     0.0400 cd         1 6X9      -0.213000
      7 C8          -2.3560    -1.0600     0.0510 cd         1 6X9       0.334300
      8 C11          3.4490    -0.2370    -0.3150 c3         1 6X9      -0.009200
      9 C12          4.0480    -0.5080     1.0640 c3         1 6X9      -0.089100
     10 C13          2.2960     2.5240    -0.2460 c3         1 6X9      -0.069900
     11 C14         -3.6780    -1.7270     0.1510 c3         1 6X9      -0.132400
     12 C15         -3.0610     1.3820     0.1150 ch         1 6X9       0.367000
     13 N4           0.1120     1.4890    -0.1140 na         1 6X9      -0.788000
     14 N16         -3.8420     2.2300     0.1710 n1         1 6X9      -0.476000
     15 N9          -1.2380    -1.7310    -0.0340 nc         1 6X9      -0.475800
     16 O10          1.4480    -2.2920    -0.2250 o          1 6X9      -0.461000
     17 H2           3.6350    -1.0920    -0.9670 hc         1 6X9       0.053200
     18 H3           3.9630     0.6060    -0.7770 hc         1 6X9       0.053200
     19 H4           5.1170    -0.7090     0.9870 hc         1 6X9       0.038700
     20 H5           3.9170     0.3480     1.7270 hc         1 6X9       0.038700
     21 H6           3.5800    -1.3720     1.5360 hc         1 6X9       0.038700
     22 H7           1.6900     3.4260    -0.1770 hc         1 6X9       0.065700
     23 H8           3.0090     2.5350     0.5780 hc         1 6X9       0.065700
     24 H9           2.8650     2.5720    -1.1740 hc         1 6X9       0.065700
     25 H10         -4.3240    -1.4330    -0.6760 hc         1 6X9       0.059033
     26 H11         -3.5640    -2.8080     0.1350 hc         1 6X9       0.059033
     27 H12         -4.1830    -1.4460     1.0750 hc         1 6X9       0.059033
     28 H1          -0.2510     2.4310    -0.0720 hn         1 6X9       0.532000
@<TRIPOS>BOND
     1     1     4 1   
     2     1     5 1   
     3     1    16 2   
     4     2     5 1   
     5     2     6 2   
     6     2    13 1   
     7     3     4 2   
     8     3    10 1   
     9     3    13 1   
    10     4     8 1   
    11     5    15 1   
    12     6     7 1   
    13     6    12 1   
    14     7    11 1   
    15     7    15 2   
    16     8     9 1   
    17     8    17 1   
    18     8    18 1   
    19     9    19 1   
    20     9    20 1   
    21     9    21 1   
    22    10    22 1   
    23    10    23 1   
    24    10    24 1   
    25    11    25 1   
    26    11    26 1   
    27    11    27 1   
    28    12    14 3   
    29    13    28 1   
@<TRIPOS>SUBSTRUCTURE
     1 6X9         1 TEMP              0 ****  ****    0 ROOT
