@<TRIPOS>MOLECULE
6XA
   24    23     1     0     0
SMALL
No Charge or Current Charge


@<TRIPOS>ATOM
      1 C2          -4.0760     0.4120     0.0780 c3         1 6XA       0.149800
      2 C3          -2.7120    -0.3070     0.0980 c3         1 6XA      -0.078400
      3 C4          -1.5350     0.6290    -0.2570 c3         1 6XA      -0.076400
      4 C5          -0.1650    -0.0860    -0.2400 c3         1 6XA      -0.066400
      5 C6           1.0110     0.8540    -0.5970 c3         1 6XA      -0.157400
      6 C7           2.3560     0.1150    -0.5700 c          1 6XA       0.602100
      7 N1          -5.1780    -0.5060     0.4170 n8         1 6XA      -0.994200
      8 N8           3.1820     0.4350     0.5010 ns         1 6XA      -0.395400
      9 O10          2.6910    -0.6670    -1.4500 o          1 6XA      -0.570100
     10 O9           4.3630    -0.3510     0.7930 oh         1 6XA      -0.422100
     11 H1          -4.0700     1.2390     0.8030 h1         1 6XA       0.025200
     12 H2          -4.2600     0.8280    -0.9220 h1         1 6XA       0.025200
     13 H3          -2.5420    -0.7360     1.0940 hc         1 6XA       0.049200
     14 H4          -2.7340    -1.1420    -0.6130 hc         1 6XA       0.049200
     15 H5          -1.7050     1.0580    -1.2520 hc         1 6XA       0.035200
     16 H6          -1.5140     1.4650     0.4530 hc         1 6XA       0.035200
     17 H7           0.0060    -0.5160     0.7560 hc         1 6XA       0.056700
     18 H8          -0.1870    -0.9240    -0.9490 hc         1 6XA       0.056700
     19 H9           0.8480     1.2450    -1.6080 hc         1 6XA       0.057200
     20 H10          1.0240     1.6830     0.1220 hc         1 6XA       0.057200
     21 H11         -5.0560    -0.8310     1.3840 hn         1 6XA       0.391500
     22 H12         -6.0570     0.0260     0.4520 hn         1 6XA       0.391500
     23 H14          2.8050     0.9840     1.2720 hn         1 6XA       0.334500
     24 H15          5.0730     0.3250     0.9010 ho         1 6XA       0.443000
@<TRIPOS>BOND
     1     1     2 1   
     2     1     7 1   
     3     1    11 1   
     4     1    12 1   
     5     2     3 1   
     6     2    13 1   
     7     2    14 1   
     8     3     4 1   
     9     3    15 1   
    10     3    16 1   
    11     4     5 1   
    12     4    17 1   
    13     4    18 1   
    14     5     6 1   
    15     5    19 1   
    16     5    20 1   
    17     6     8 1   
    18     6     9 2   
    19     7    21 1   
    20     7    22 1   
    21     8    10 1   
    22     8    23 1   
    23    10    24 1   
@<TRIPOS>SUBSTRUCTURE
     1 6XA         1 TEMP              0 ****  ****    0 ROOT
