@<TRIPOS>MOLECULE
6XA
   24    23     1     0     0
SMALL
abcg2


@<TRIPOS>ATOM
      1 C2          -4.0520     0.4500     0.0310 c3         1 6XA       0.149800
      2 C3          -2.7400    -0.3200     0.0360 c3         1 6XA      -0.078400
      3 C4          -1.5260     0.5870    -0.1200 c3         1 6XA      -0.076400
      4 C5          -0.2090    -0.1770    -0.1030 c3         1 6XA      -0.066400
      5 C6           0.9870     0.7520    -0.2820 c3         1 6XA      -0.157400
      6 C7           2.3020     0.0070    -0.3040 c          1 6XA       0.602100
      7 N1          -5.1880    -0.4500     0.1720 n8         1 6XA      -0.994200
      8 N8           3.2640     0.5930     0.4330 ns         1 6XA      -0.395400
      9 O10          2.4840    -1.0070    -0.9570 o          1 6XA      -0.570100
     10 O9           4.4700    -0.0170     0.5990 oh         1 6XA      -0.422100
     11 H1          -4.0100     1.2270     0.8080 h1         1 6XA       0.025200
     12 H2          -4.1500     0.9780    -0.9220 h1         1 6XA       0.025200
     13 H3          -2.6560    -0.8830     0.9730 hc         1 6XA       0.049200
     14 H4          -2.7570    -1.0610    -0.7690 hc         1 6XA       0.049200
     15 H5          -1.6070     1.1470    -1.0590 hc         1 6XA       0.035200
     16 H6          -1.5240     1.3350     0.6800 hc         1 6XA       0.035200
     17 H7          -0.1150    -0.7210     0.8420 hc         1 6XA       0.056700
     18 H8          -0.2110    -0.9290    -0.8950 hc         1 6XA       0.056700
     19 H9           0.8990     1.2820    -1.2360 hc         1 6XA       0.057200
     20 H10          0.9840     1.5210     0.4940 hc         1 6XA       0.057200
     21 H11         -5.1630    -0.8720     1.0930 hn         1 6XA       0.391500
     22 H12         -6.0470     0.0840     0.1430 hn         1 6XA       0.391500
     23 H14          3.0770     1.3490     1.0750 hn         1 6XA       0.334500
     24 H15          5.0580     0.3570    -0.0700 ho         1 6XA       0.443000
@<TRIPOS>BOND
     1     1     2 1   
     2     1     7 1   
     3     1    11 1   
     4     1    12 1   
     5     2     3 1   
     6     2    13 1   
     7     2    14 1   
     8     3     4 1   
     9     3    15 1   
    10     3    16 1   
    11     4     5 1   
    12     4    17 1   
    13     4    18 1   
    14     5     6 1   
    15     5    19 1   
    16     5    20 1   
    17     6     8 1   
    18     6     9 2   
    19     7    21 1   
    20     7    22 1   
    21     8    10 1   
    22     8    23 1   
    23    10    24 1   
@<TRIPOS>SUBSTRUCTURE
     1 6XA         1 TEMP              0 ****  ****    0 ROOT
