@<TRIPOS>MOLECULE
6XB
   35    37     1     0     0
SMALL
abcg2


@<TRIPOS>ATOM
      1 CAM         -2.8660    -1.9290    -0.0050 c6         1 6XB      -0.038100
      2 CAN         -3.5110    -0.8640     0.8840 c6         1 6XB       0.108000
      3 NAO         -3.0830     0.4710     0.4990 n          1 6XB      -0.413800
      4 CAQ         -3.8310     1.3310    -0.2320 c          1 6XB       0.608100
      5 OAR         -3.4040     2.4210    -0.5910 o          1 6XB      -0.598100
      6 CAS         -5.2370     0.8990    -0.5790 c3         1 6XB      -0.177100
      7 CAP         -1.6790     0.7510     0.7680 c6         1 6XB       0.182300
      8 CAL         -0.8660    -0.4000     0.2690 cc         1 6XB      -0.280300
      9 CAK         -1.4180    -1.6050    -0.0880 cd         1 6XB      -0.108300
     10 NAJ         -0.4120    -2.3860    -0.5000 na         1 6XB      -0.002200
     11 NAI          0.7820    -1.7720    -0.4350 nd         1 6XB      -0.567800
     12 CAH          0.5190    -0.5660     0.0340 cc         1 6XB       0.544900
     13 NAG          1.4650     0.4060     0.2630 nu         1 6XB      -0.938900
     14 CAF          2.8310     0.3840     0.0660 ca         1 6XB       0.328000
     15 CAE          3.5360    -0.7130    -0.4430 ca         1 6XB      -0.170000
     16 CAD          4.9140    -0.6380    -0.6020 ca         1 6XB      -0.075500
     17 CAC          5.6220     0.5070    -0.2670 ca         1 6XB      -0.153000
     18 CAB          4.9210     1.5970     0.2370 ca         1 6XB      -0.075500
     19 CAA          3.5500     1.5410     0.4020 ca         1 6XB      -0.170000
     20 H1          -3.0350    -2.9210     0.4200 hc         1 6XB       0.061700
     21 H2          -3.3220    -1.9250    -0.9980 hc         1 6XB       0.061700
     22 H3          -4.5930    -0.9440     0.8570 h1         1 6XB       0.056700
     23 H4          -3.2110    -1.0270     1.9220 h1         1 6XB       0.056700
     24 H5          -5.8540     0.7810     0.3120 hc         1 6XB       0.059700
     25 H6          -5.6920     1.6580    -1.2100 hc         1 6XB       0.059700
     26 H7          -5.2530    -0.0490    -1.1180 hc         1 6XB       0.059700
     27 H8          -1.4040     1.6830     0.2760 h1         1 6XB       0.064700
     28 H9          -1.5390     0.9040     1.8440 h1         1 6XB       0.064700
     29 H10         -0.4630    -3.3330    -0.8350 hn         1 6XB       0.374000
     30 H11          1.1010     1.2690     0.6330 hn         1 6XB       0.497000
     31 H12          3.0150    -1.6180    -0.7150 ha         1 6XB       0.124500
     32 H13          5.4370    -1.5000    -0.9970 ha         1 6XB       0.109000
     33 H14          6.6950     0.5510    -0.3950 ha         1 6XB       0.113000
     34 H15          5.4470     2.5050     0.5080 ha         1 6XB       0.109000
     35 H16          3.0230     2.4010     0.7970 ha         1 6XB       0.124500
@<TRIPOS>BOND
     1     1     2 1   
     2     1     9 1   
     3     1    20 1   
     4     1    21 1   
     5     2     3 1   
     6     2    22 1   
     7     2    23 1   
     8     3     4 1   
     9     3     7 1   
    10     4     5 2   
    11     4     6 1   
    12     6    24 1   
    13     6    25 1   
    14     6    26 1   
    15     7     8 1   
    16     7    27 1   
    17     7    28 1   
    18     8     9 2   
    19     8    12 1   
    20     9    10 1   
    21    10    11 1   
    22    10    29 1   
    23    11    12 2   
    24    12    13 1   
    25    13    14 1   
    26    13    30 1   
    27    14    15 ar  
    28    14    19 ar  
    29    15    16 ar  
    30    15    31 1   
    31    16    17 ar  
    32    16    32 1   
    33    17    18 ar  
    34    17    33 1   
    35    18    19 ar  
    36    18    34 1   
    37    19    35 1   
@<TRIPOS>SUBSTRUCTURE
     1 6XB         1 TEMP              0 ****  ****    0 ROOT
