@<TRIPOS>MOLECULE
6XB
   35    37     1     0     0
SMALL
No Charge or Current Charge


@<TRIPOS>ATOM
      1 CAM         -2.8170    -2.1280     0.1060 c6         1 6XB      -0.038100
      2 CAN         -3.5520    -0.8570     0.6160 c6         1 6XB       0.108000
      3 NAO         -3.0660     0.4280     0.0010 n          1 6XB      -0.413800
      4 CAQ         -3.9170     1.5380    -0.1960 c          1 6XB       0.608100
      5 OAR         -3.4540     2.6560    -0.3850 o          1 6XB      -0.598100
      6 CAS         -5.4330     1.3260    -0.2360 c3         1 6XB      -0.177100
      7 CAP         -1.5840     0.6500     0.0360 c6         1 6XB       0.182300
      8 CAL         -0.8040    -0.6370     0.0400 cc         1 6XB      -0.280300
      9 CAK         -1.3400    -1.8740     0.0720 cd         1 6XB      -0.108300
     10 NAJ         -0.2460    -2.7500     0.0590 na         1 6XB      -0.002200
     11 NAI          0.9740    -2.0590     0.0210 nd         1 6XB      -0.567800
     12 CAH          0.5820    -0.8080     0.0050 cc         1 6XB       0.544900
     13 NAG          1.4370     0.2520    -0.0130 nu         1 6XB      -0.938900
     14 CAF          2.8270     0.3520    -0.0410 ca         1 6XB       0.328000
     15 CAE          3.6190    -0.5480    -0.7760 ca         1 6XB      -0.170000
     16 CAD          5.0190    -0.4100    -0.8010 ca         1 6XB      -0.075500
     17 CAC          5.6310     0.6390    -0.0950 ca         1 6XB      -0.153000
     18 CAB          4.8450     1.5490     0.6310 ca         1 6XB      -0.075500
     19 CAA          3.4460     1.4060     0.6520 ca         1 6XB      -0.170000
     20 H1          -3.0610    -2.9850     0.7470 hc         1 6XB       0.061700
     21 H2          -3.1750    -2.3730    -0.9030 hc         1 6XB       0.061700
     22 H3          -4.6260    -1.0030     0.4490 h1         1 6XB       0.056700
     23 H4          -3.4080    -0.7850     1.7040 h1         1 6XB       0.056700
     24 H5          -5.7680     0.9500     0.7370 hc         1 6XB       0.059700
     25 H6          -5.9750     2.2380    -0.5100 hc         1 6XB       0.059700
     26 H7          -5.6670     0.4990    -0.9150 hc         1 6XB       0.059700
     27 H8          -1.2940     1.2510    -0.8380 h1         1 6XB       0.064700
     28 H9          -1.3400     1.2410     0.9310 h1         1 6XB       0.064700
     29 H10         -0.2890    -3.7690     0.0760 hn         1 6XB       0.374000
     30 H11          0.9660     1.1140     0.2430 hn         1 6XB       0.497000
     31 H12          3.1540    -1.3520    -1.3390 ha         1 6XB       0.124500
     32 H13          5.6260    -1.1110    -1.3700 ha         1 6XB       0.109000
     33 H14          6.7130     0.7480    -0.1130 ha         1 6XB       0.113000
     34 H15          5.3180     2.3650     1.1750 ha         1 6XB       0.109000
     35 H16          2.8450     2.1150     1.2150 ha         1 6XB       0.124500
@<TRIPOS>BOND
     1     1     2 1   
     2     1     9 1   
     3     1    20 1   
     4     1    21 1   
     5     2     3 1   
     6     2    22 1   
     7     2    23 1   
     8     3     4 1   
     9     3     7 1   
    10     4     5 2   
    11     4     6 1   
    12     6    24 1   
    13     6    25 1   
    14     6    26 1   
    15     7     8 1   
    16     7    27 1   
    17     7    28 1   
    18     8     9 2   
    19     8    12 1   
    20     9    10 1   
    21    10    11 1   
    22    10    29 1   
    23    11    12 2   
    24    12    13 1   
    25    13    14 1   
    26    13    30 1   
    27    14    15 ar  
    28    14    19 ar  
    29    15    16 ar  
    30    15    31 1   
    31    16    17 ar  
    32    16    32 1   
    33    17    18 ar  
    34    17    33 1   
    35    18    19 ar  
    36    18    34 1   
    37    19    35 1   
@<TRIPOS>SUBSTRUCTURE
     1 6XB         1 TEMP              0 ****  ****    0 ROOT
