@<TRIPOS>MOLECULE
6XC
   37    39     1     0     0
SMALL
No Charge or Current Charge


@<TRIPOS>ATOM
      1 C01          5.3590    -0.8400    -0.5830 c3         1 6XC      -0.041900
      2 C05          3.9440    -0.3930    -0.2980 cc         1 6XC      -0.160400
      3 C06          3.5660     0.9310    -0.1440 cd         1 6XC      -0.109200
      4 C08          2.1750     1.2970     0.1320 ca         1 6XC      -0.064800
      5 C09          1.7670     2.6310     0.2870 ca         1 6XC      -0.161000
      6 C11          0.4140     2.9070     0.5510 ca         1 6XC       0.347900
      7 N13         -0.5280     1.9450     0.6690 nb         1 6XC      -0.723000
      8 C14         -0.1390     0.6660     0.5220 ca         1 6XC       0.581900
      9 N15         -1.1630    -0.2640     0.6780 nu         1 6XC      -0.918100
     10 C17         -2.5980    -0.0120     0.4580 c6         1 6XC       0.224500
     11 C19         -3.4180    -1.1700     1.0720 c6         1 6XC      -0.131900
     12 C22         -4.9230    -0.9850     0.7760 c6         1 6XC       0.150800
     13 N25         -5.1630    -0.8700    -0.6830 n7         1 6XC      -0.843400
     14 C27         -4.4130     0.2490    -1.3030 c6         1 6XC       0.150800
     15 C30         -2.8950     0.0970    -1.0570 c6         1 6XC      -0.131900
     16 C33          1.2070     0.2880     0.2480 ca         1 6XC      -0.006400
     17 N34          1.6450    -1.0530     0.0710 ns         1 6XC      -0.365100
     18 C36          2.9260    -1.4830    -0.1910 c          1 6XC       0.554200
     19 O37          3.1680    -2.6740    -0.3220 o          1 6XC      -0.554000
     20 H011         5.7270    -1.5070     0.2060 hc         1 6XC       0.052033
     21 H012         5.4160    -1.3790    -1.5370 hc         1 6XC       0.052033
     22 H013         6.0450     0.0130    -0.6430 hc         1 6XC       0.052033
     23 H06          4.3170     1.7130    -0.2280 ha         1 6XC       0.191000
     24 H09          2.4790     3.4480     0.2060 ha         1 6XC       0.128000
     25 H11          0.0740     3.9350     0.6740 h4         1 6XC       0.022100
     26 H15         -0.8670    -1.2280     0.7760 hn         1 6XC       0.465000
     27 H17         -2.9130     0.9220     0.9530 h1         1 6XC       0.085700
     28 H191        -3.0810    -2.1350     0.6670 hc         1 6XC       0.049950
     29 H192        -3.2600    -1.2090     2.1580 hc         1 6XC       0.049950
     30 H301        -2.3670     0.9590    -1.4860 hc         1 6XC       0.049950
     31 H302        -2.5230    -0.7940    -1.5820 hc         1 6XC       0.049950
     32 H221        -5.4870    -1.8400     1.1790 h1         1 6XC       0.056200
     33 H222        -5.2900    -0.0800     1.2840 h1         1 6XC       0.056200
     34 H25         -4.8630    -1.7460    -1.1290 hn         1 6XC       0.402000
     35 H271        -4.6110     0.2750    -2.3860 h1         1 6XC       0.056200
     36 H272        -4.7590     1.2050    -0.8820 h1         1 6XC       0.056200
     37 H34          0.9490    -1.7850     0.1140 hn         1 6XC       0.327500
@<TRIPOS>BOND
     1     1     2 1   
     2     1    20 1   
     3     1    21 1   
     4     1    22 1   
     5     2     3 2   
     6     2    18 1   
     7     3     4 1   
     8     3    23 1   
     9     4     5 ar  
    10     4    16 ar  
    11     5     6 ar  
    12     5    24 1   
    13     6     7 ar  
    14     6    25 1   
    15     7     8 ar  
    16     8     9 1   
    17     8    16 ar  
    18     9    10 1   
    19     9    26 1   
    20    10    11 1   
    21    10    15 1   
    22    10    27 1   
    23    11    12 1   
    24    11    28 1   
    25    11    29 1   
    26    12    13 1   
    27    12    32 1   
    28    12    33 1   
    29    13    14 1   
    30    13    34 1   
    31    14    15 1   
    32    14    35 1   
    33    14    36 1   
    34    15    30 1   
    35    15    31 1   
    36    16    17 1   
    37    17    18 1   
    38    17    37 1   
    39    18    19 2   
@<TRIPOS>SUBSTRUCTURE
     1 6XC         1 TEMP              0 ****  ****    0 ROOT
