@<TRIPOS>MOLECULE
6XC
   37    39     1     0     0
SMALL
bcc


@<TRIPOS>ATOM
      1 C01          5.3870    -0.8010    -0.2320 c3         1 6XC      -0.041900
      2 C05          3.9580    -0.3920    -0.1070 cc         1 6XC      -0.160400
      3 C06          3.5510     0.8940    -0.1250 cd         1 6XC      -0.059200
      4 C08          2.1710     1.2630    -0.0040 ca         1 6XC      -0.064800
      5 C09          1.7260     2.5970     0.0210 ca         1 6XC      -0.244300
      6 C11          0.3840     2.8220     0.1710 ca         1 6XC       0.413200
      7 N13         -0.5290     1.8420     0.2420 nb         1 6XC      -0.723000
      8 C14         -0.1450     0.5840     0.1950 ca         1 6XC       0.647200
      9 N15         -1.0820    -0.4080     0.2780 nu         1 6XC      -0.862900
     10 C17         -2.5060    -0.1240     0.3120 c6         1 6XC       0.224500
     11 C19         -3.2480    -1.3430     0.8530 c6         1 6XC      -0.131900
     12 C22         -4.7560    -1.0930     0.8630 c6         1 6XC       0.150800
     13 N25         -5.3000    -0.6770    -0.4190 n7         1 6XC      -0.788200
     14 C27         -4.5900     0.4750    -0.9520 c6         1 6XC       0.150800
     15 C30         -3.0780     0.2790    -1.0470 c6         1 6XC      -0.131900
     16 C33          1.2360     0.2450     0.1160 ca         1 6XC      -0.071700
     17 N34          1.6710    -1.0560     0.1640 ns         1 6XC      -0.432100
     18 C36          2.9750    -1.4620     0.0700 c          1 6XC       0.696700
     19 O37          3.2720    -2.6480     0.1400 o          1 6XC      -0.629500
     20 H011         5.7260    -1.3270     0.6630 hc         1 6XC       0.052033
     21 H012         5.5320    -1.4820    -1.0720 hc         1 6XC       0.052033
     22 H013         6.0280     0.0650    -0.3790 hc         1 6XC       0.052033
     23 H06          4.2820     1.6880    -0.2320 ha         1 6XC       0.141000
     24 H09          2.4290     3.4140    -0.0630 ha         1 6XC       0.146000
     25 H11         -0.0030     3.8330     0.2250 h4         1 6XC       0.022100
     26 H15         -0.8610    -1.2690    -0.2010 hn         1 6XC       0.409800
     27 H17         -2.6530     0.7060     1.0090 h1         1 6XC       0.085700
     28 H191        -3.0270    -2.2160     0.2270 hc         1 6XC       0.049950
     29 H192        -2.9010    -1.5760     1.8630 hc         1 6XC       0.049950
     30 H301        -2.5970     1.1930    -1.4000 hc         1 6XC       0.049950
     31 H302        -2.8600    -0.5080    -1.7780 hc         1 6XC       0.049950
     32 H221        -5.2810    -1.9900     1.1940 h1         1 6XC       0.056200
     33 H222        -4.9830    -0.3110     1.5970 h1         1 6XC       0.056200
     34 H25         -5.2130    -1.4460    -1.0750 hn         1 6XC       0.346800
     35 H271        -5.0000     0.7180    -1.9350 h1         1 6XC       0.056200
     36 H272        -4.8040     1.3340    -0.3060 h1         1 6XC       0.056200
     37 H34          1.0070    -1.7940     0.3500 hn         1 6XC       0.327500
@<TRIPOS>BOND
     1     1     2 1   
     2     1    20 1   
     3     1    21 1   
     4     1    22 1   
     5     2     3 2   
     6     2    18 1   
     7     3     4 1   
     8     3    23 1   
     9     4     5 ar  
    10     4    16 ar  
    11     5     6 ar  
    12     5    24 1   
    13     6     7 ar  
    14     6    25 1   
    15     7     8 ar  
    16     8     9 1   
    17     8    16 ar  
    18     9    10 1   
    19     9    26 1   
    20    10    11 1   
    21    10    15 1   
    22    10    27 1   
    23    11    12 1   
    24    11    28 1   
    25    11    29 1   
    26    12    13 1   
    27    12    32 1   
    28    12    33 1   
    29    13    14 1   
    30    13    34 1   
    31    14    15 1   
    32    14    35 1   
    33    14    36 1   
    34    15    30 1   
    35    15    31 1   
    36    16    17 1   
    37    17    18 1   
    38    17    37 1   
    39    18    19 2   
@<TRIPOS>SUBSTRUCTURE
     1 6XC         1 TEMP              0 ****  ****    0 ROOT
