@<TRIPOS>MOLECULE
6XD
   48    51     1     0     0
SMALL
abcg2


@<TRIPOS>ATOM
      1 C4          -5.1120    -1.4610     0.2530 c6         1 6XD      -0.070733
      2 C5          -4.7770    -0.8400    -1.1050 c6         1 6XD      -0.056033
      3 C6          -5.4460     0.5310    -1.2170 c6         1 6XD      -0.070733
      4 C7          -4.9280     1.4380    -0.0990 c6         1 6XD      -0.056033
      5 C8          -3.4100     1.5830    -0.2220 c6         1 6XD      -0.082733
      6 C10         -5.2710     0.8210     1.2580 c6         1 6XD      -0.070733
      7 N02         -1.2940     0.4620    -0.2450 ns         1 6XD      -0.523900
      8 C03         -0.3080    -0.4690    -0.1720 c          1 6XD       0.651100
      9 N04          0.9560     0.0480    -0.2030 ns         1 6XD      -0.521900
     10 C05          2.1130    -0.8070    -0.3350 c3         1 6XD       0.114000
     11 C06          3.3820    -0.0070    -0.0880 c3         1 6XD      -0.117400
     12 C07          4.6140    -0.8920    -0.2090 c3         1 6XD       0.075600
     13 N08          5.8400    -0.1650     0.0480 na         1 6XD      -0.170500
     14 C09          6.5690    -0.2060     1.1820 cc         1 6XD       0.389400
     15 N10          7.6000     0.5980     1.1350 nd         1 6XD      -0.672000
     16 C11          7.5330     1.1960    -0.0920 cd         1 6XD       0.230900
     17 C12          6.4470     0.7380    -0.7810 cc         1 6XD      -0.237000
     18 O13         -0.5080    -1.6760    -0.0710 o          1 6XD      -0.643100
     19 C1          -2.7240     0.2140    -0.1110 c6         1 6XD       0.153400
     20 C2          -3.0860    -0.3940     1.2520 c6         1 6XD      -0.082733
     21 C3          -4.6040    -0.5500     1.3720 c6         1 6XD      -0.056033
     22 C9          -3.2590    -0.6840    -1.2350 c6         1 6XD      -0.082733
     23 H1          -6.1950    -1.6000     0.3450 hc         1 6XD       0.042033
     24 H2          -4.6600    -2.4540     0.3390 hc         1 6XD       0.042033
     25 H3          -5.1380    -1.4920    -1.9060 hc         1 6XD       0.051700
     26 H4          -5.2350     0.9750    -2.1950 hc         1 6XD       0.042033
     27 H5          -6.5330     0.4280    -1.1430 hc         1 6XD       0.042033
     28 H6          -5.3850     2.4280    -0.1840 hc         1 6XD       0.051700
     29 H7          -3.1500     2.0430    -1.1820 hc         1 6XD       0.050700
     30 H8          -3.0310     2.2460     0.5630 hc         1 6XD       0.050700
     31 H9          -4.9350     1.4750     2.0680 hc         1 6XD       0.042033
     32 H10         -6.3570     0.7230     1.3610 hc         1 6XD       0.042033
     33 H11         -1.0140     1.4300    -0.2500 hn         1 6XD       0.302500
     34 H12          1.0730     1.0040    -0.4980 hn         1 6XD       0.297500
     35 H13          2.0450    -1.6170     0.3930 h1         1 6XD       0.051200
     36 H14          2.1590    -1.2760    -1.3260 h1         1 6XD       0.051200
     37 H15          3.4500     0.8130    -0.8090 hc         1 6XD       0.058200
     38 H16          3.3500     0.4390     0.9090 hc         1 6XD       0.058200
     39 H17          4.5660    -1.7120     0.5070 h1         1 6XD       0.063200
     40 H18          4.6740    -1.3360    -1.2040 h1         1 6XD       0.063200
     41 H19          6.3010    -0.8480     2.0090 h5         1 6XD       0.053100
     42 H20          8.2680     1.9150    -0.4180 h4         1 6XD       0.037100
     43 H21          6.0660     0.9650    -1.7630 h4         1 6XD       0.154000
     44 H22         -2.6000    -1.3650     1.3730 hc         1 6XD       0.050700
     45 H23         -2.7050     0.2550     2.0480 hc         1 6XD       0.050700
     46 H24         -4.8420    -0.9930     2.3440 hc         1 6XD       0.051700
     47 H25         -2.7760    -1.6610    -1.1970 hc         1 6XD       0.050700
     48 H26         -3.0060    -0.2380    -2.2030 hc         1 6XD       0.050700
@<TRIPOS>BOND
     1     1     2 1   
     2     1    21 1   
     3     1    23 1   
     4     1    24 1   
     5     2     3 1   
     6     2    22 1   
     7     2    25 1   
     8     3     4 1   
     9     3    26 1   
    10     3    27 1   
    11     4     5 1   
    12     4     6 1   
    13     4    28 1   
    14     5    19 1   
    15     5    29 1   
    16     5    30 1   
    17     6    21 1   
    18     6    31 1   
    19     6    32 1   
    20     7     8 1   
    21     7    19 1   
    22     7    33 1   
    23     8     9 1   
    24     8    18 2   
    25     9    10 1   
    26     9    34 1   
    27    10    11 1   
    28    10    35 1   
    29    10    36 1   
    30    11    12 1   
    31    11    37 1   
    32    11    38 1   
    33    12    13 1   
    34    12    39 1   
    35    12    40 1   
    36    13    14 1   
    37    13    17 1   
    38    14    15 2   
    39    14    41 1   
    40    15    16 1   
    41    16    17 2   
    42    16    42 1   
    43    17    43 1   
    44    19    20 1   
    45    19    22 1   
    46    20    21 1   
    47    20    44 1   
    48    20    45 1   
    49    21    46 1   
    50    22    47 1   
    51    22    48 1   
@<TRIPOS>SUBSTRUCTURE
     1 6XD         1 TEMP              0 ****  ****    0 ROOT
