@<TRIPOS>MOLECULE
6XD
   48    51     1     0     0
SMALL
No Charge or Current Charge


@<TRIPOS>ATOM
      1 C4          -5.2480    -1.4520    -0.0290 c6         1 6XD      -0.070733
      2 C5          -4.7870    -0.6770    -1.2980 c6         1 6XD      -0.056033
      3 C6          -5.4020     0.7510    -1.2830 c6         1 6XD      -0.070733
      4 C7          -4.9310     1.5070    -0.0080 c6         1 6XD      -0.056033
      5 C8          -3.3770     1.5950    -0.0080 c6         1 6XD      -0.082733
      6 C10         -5.4020     0.7340     1.2560 c6         1 6XD      -0.070733
      7 N02         -1.2740     0.3410    -0.0170 ns         1 6XD      -0.523900
      8 C03         -0.3170    -0.6400    -0.0240 c          1 6XD       0.651100
      9 N04          0.9480    -0.1220    -0.0210 ns         1 6XD      -0.521900
     10 C05          2.1630    -0.9330    -0.0270 c3         1 6XD       0.114000
     11 C06          3.4280    -0.0570    -0.0080 c3         1 6XD      -0.117400
     12 C07          4.7260    -0.8890    -0.0140 c3         1 6XD       0.075600
     13 N08          5.9360    -0.0520    -0.0010 na         1 6XD      -0.170500
     14 C09          6.6580     0.3190     1.1150 cc         1 6XD       0.389400
     15 N10          7.6910     1.0770     0.7740 nd         1 6XD      -0.672000
     16 C11          7.6310     1.1970    -0.5990 cd         1 6XD       0.230900
     17 C12          6.5560     0.5080    -1.0970 cc         1 6XD      -0.237000
     18 O13         -0.5470    -1.8370    -0.0330 o          1 6XD      -0.643100
     19 C1          -2.7370     0.1690    -0.0180 c6         1 6XD       0.153400
     20 C2          -3.2330    -0.5870     1.2570 c6         1 6XD      -0.082733
     21 C3          -4.7860    -0.6940     1.2510 c6         1 6XD      -0.056033
     22 C9          -3.2340    -0.5690    -1.3030 c6         1 6XD      -0.082733
     23 H1          -6.3420    -1.5620    -0.0290 hc         1 6XD       0.042033
     24 H2          -4.8360    -2.4700    -0.0360 hc         1 6XD       0.042033
     25 H3          -5.1210    -1.2110    -2.1980 hc         1 6XD       0.051700
     26 H4          -5.1030     1.3040    -2.1850 hc         1 6XD       0.042033
     27 H5          -6.5000     0.6920    -1.3060 hc         1 6XD       0.042033
     28 H6          -5.3590     2.5190    -0.0010 hc         1 6XD       0.051700
     29 H7          -3.0400     2.1680    -0.8830 hc         1 6XD       0.050700
     30 H8          -3.0400     2.1560     0.8740 hc         1 6XD       0.050700
     31 H9          -5.1020     1.2740     2.1650 hc         1 6XD       0.042033
     32 H10         -6.4990     0.6740     1.2790 hc         1 6XD       0.042033
     33 H11         -0.9280     1.2900    -0.0110 hn         1 6XD       0.302500
     34 H12          1.0390     0.8850    -0.0140 hn         1 6XD       0.297500
     35 H13          2.1550    -1.5890     0.8550 h1         1 6XD       0.051200
     36 H14          2.1630    -1.5640    -0.9260 h1         1 6XD       0.051200
     37 H15          3.4210     0.6050    -0.8830 hc         1 6XD       0.058200
     38 H16          3.4130     0.5820     0.8830 hc         1 6XD       0.058200
     39 H17          4.7430    -1.5480     0.8640 h1         1 6XD       0.063200
     40 H18          4.7510    -1.5230    -0.9090 h1         1 6XD       0.063200
     41 H19          6.3820     0.0120     2.1180 h5         1 6XD       0.053100
     42 H20          8.3640     1.7710    -1.1530 h4         1 6XD       0.037100
     43 H21          6.2030     0.3830    -2.1130 h4         1 6XD       0.154000
     44 H22         -2.8010    -1.5940     1.3020 hc         1 6XD       0.050700
     45 H23         -2.8940    -0.0660     2.1630 hc         1 6XD       0.050700
     46 H24         -5.1200    -1.2410     2.1430 hc         1 6XD       0.051700
     47 H25         -2.8010    -1.5760    -1.3620 hc         1 6XD       0.050700
     48 H26         -2.8950    -0.0360    -2.2020 hc         1 6XD       0.050700
@<TRIPOS>BOND
     1     1     2 1   
     2     1    21 1   
     3     1    23 1   
     4     1    24 1   
     5     2     3 1   
     6     2    22 1   
     7     2    25 1   
     8     3     4 1   
     9     3    26 1   
    10     3    27 1   
    11     4     5 1   
    12     4     6 1   
    13     4    28 1   
    14     5    19 1   
    15     5    29 1   
    16     5    30 1   
    17     6    21 1   
    18     6    31 1   
    19     6    32 1   
    20     7     8 1   
    21     7    19 1   
    22     7    33 1   
    23     8     9 1   
    24     8    18 2   
    25     9    10 1   
    26     9    34 1   
    27    10    11 1   
    28    10    35 1   
    29    10    36 1   
    30    11    12 1   
    31    11    37 1   
    32    11    38 1   
    33    12    13 1   
    34    12    39 1   
    35    12    40 1   
    36    13    14 1   
    37    13    17 1   
    38    14    15 2   
    39    14    41 1   
    40    15    16 1   
    41    16    17 2   
    42    16    42 1   
    43    17    43 1   
    44    19    20 1   
    45    19    22 1   
    46    20    21 1   
    47    20    44 1   
    48    20    45 1   
    49    21    46 1   
    50    22    47 1   
    51    22    48 1   
@<TRIPOS>SUBSTRUCTURE
     1 6XD         1 TEMP              0 ****  ****    0 ROOT
