@<TRIPOS>MOLECULE
6XE
   40    44     1     0     0
SMALL
No Charge or Current Charge


@<TRIPOS>ATOM
      1 C1          -2.4440     1.5750     0.5720 ca         1 6XE      -0.086000
      2 C2          -3.3860     1.4030    -0.4740 ca         1 6XE       0.272000
      3 N3          -3.8210     2.4460    -1.2220 nb         1 6XE      -0.658000
      4 C4          -3.3340     3.6810    -0.9570 ca         1 6XE       0.354900
      5 C5          -2.3980     3.9300     0.0590 ca         1 6XE      -0.167000
      6 C6          -1.9410     2.8600     0.8420 ca         1 6XE      -0.059000
      7 C7          -2.4960    -0.8180     1.0570 ca         1 6XE      -0.089300
      8 C8          -3.4310    -0.9950     0.0220 ca         1 6XE      -0.092000
      9 C9          -3.8710     0.1070    -0.7320 ca         1 6XE      -0.081000
     10 C10         -2.0080     0.4730     1.3320 ca         1 6XE      -0.072000
     11 C11          1.8380    -1.1970    -0.2000 cc         1 6XE       0.330500
     12 C12          2.4240    -2.4050    -0.8030 cc         1 6XE       0.335900
     13 N13          1.9120    -3.6440    -0.7720 nd         1 6XE      -0.560000
     14 N14          0.6820    -1.2130     0.4900 nd         1 6XE      -0.423800
     15 C15          3.7540     2.6780    -0.5310 ca         1 6XE       0.197000
     16 C16          4.3760     1.5470    -1.0710 ca         1 6XE      -0.158000
     17 C17          3.7650     0.2850    -0.9690 ca         1 6XE      -0.049500
     18 C18          2.5090     0.1300    -0.3210 ca         1 6XE      -0.176500
     19 C19          1.9030     1.2970     0.2210 ca         1 6XE      -0.049500
     20 C20          2.5200     2.5550     0.1140 ca         1 6XE      -0.158000
     21 N22          0.1610    -2.4970     0.5160 na         1 6XE      -0.073500
     22 C23          0.7270    -3.5870    -0.0650 cd         1 6XE       0.301500
     23 N24         -0.0510    -4.6390     0.1440 nc         1 6XE      -0.029000
     24 N25         -1.1620    -4.1930     0.8850 nc         1 6XE      -0.361700
     25 C26         -1.0150    -2.8850     1.0980 cd         1 6XE       0.374800
     26 C27         -1.9940    -2.0190     1.8530 c3         1 6XE      -0.032400
     27 H6          -1.2160     3.0260     1.6360 ha         1 6XE       0.117000
     28 H10         -1.2800     0.6190     2.1270 ha         1 6XE       0.114000
     29 H9          -4.5920    -0.0430    -1.5300 ha         1 6XE       0.135000
     30 H4          -3.7070     4.4940    -1.5790 h4         1 6XE       0.020100
     31 H5          -2.0380     4.9400     0.2320 ha         1 6XE       0.124000
     32 H8          -3.8150    -1.9880    -0.2050 ha         1 6XE       0.127000
     33 H271        -1.5190    -1.6850     2.7820 hc         1 6XE       0.079200
     34 H272        -2.8490    -2.6290     2.1680 hc         1 6XE       0.079200
     35 H12          3.3510    -2.3810    -1.3520 h4         1 6XE       0.047100
     36 H16          5.3370     1.6490    -1.5690 ha         1 6XE       0.139500
     37 H20          2.0390     3.4360     0.5320 ha         1 6XE       0.139500
     38 H17          4.2970    -0.5560    -1.4020 ha         1 6XE       0.127000
     39 H19          0.9420     1.2510     0.7280 ha         1 6XE       0.127000
     40 F21          4.3460     3.8870    -0.6330 f          1 6XE      -0.168000
@<TRIPOS>BOND
     1     1     2 ar  
     2     1     6 ar  
     3     1    10 ar  
     4     2     3 ar  
     5     2     9 ar  
     6     3     4 ar  
     7     4     5 ar  
     8     4    30 1   
     9     5     6 ar  
    10     5    31 1   
    11     6    27 1   
    12     7     8 ar  
    13     7    10 ar  
    14     7    26 1   
    15     8     9 ar  
    16     8    32 1   
    17     9    29 1   
    18    10    28 1   
    19    11    12 1   
    20    11    14 2   
    21    11    18 1   
    22    12    13 2   
    23    12    35 1   
    24    13    22 1   
    25    14    21 1   
    26    15    16 ar  
    27    15    20 ar  
    28    15    40 1   
    29    16    17 ar  
    30    16    36 1   
    31    17    18 ar  
    32    17    38 1   
    33    18    19 ar  
    34    19    20 ar  
    35    19    39 1   
    36    20    37 1   
    37    21    22 1   
    38    21    25 1   
    39    22    23 2   
    40    23    24 1   
    41    24    25 2   
    42    25    26 1   
    43    26    33 1   
    44    26    34 1   
@<TRIPOS>SUBSTRUCTURE
     1 6XE         1 TEMP              0 ****  ****    0 ROOT
