@<TRIPOS>MOLECULE
6XE
   40    44     1     0     0
SMALL
abcg2


@<TRIPOS>ATOM
      1 C1          -2.4830     1.5950     0.3910 ca         1 6XE      -0.086000
      2 C2          -3.5160     1.3120    -0.5360 ca         1 6XE       0.272000
      3 N3          -4.0630     2.2670    -1.3250 nb         1 6XE      -0.658000
      4 C4          -3.6090     3.4880    -1.2210 ca         1 6XE       0.354900
      5 C5          -2.5820     3.8760    -0.3350 ca         1 6XE      -0.167000
      6 C6          -2.0200     2.9270     0.4710 ca         1 6XE      -0.059000
      7 C7          -2.4270    -0.7260     1.0680 ca         1 6XE      -0.089300
      8 C8          -3.4550    -1.0040     0.1370 ca         1 6XE      -0.092000
      9 C9          -3.9890    -0.0160    -0.6410 ca         1 6XE      -0.081000
     10 C10         -1.9540     0.5530     1.1840 ca         1 6XE      -0.072000
     11 C11          1.8770    -1.1650    -0.1580 cc         1 6XE       0.330500
     12 C12          2.3700    -2.3310    -0.8650 cc         1 6XE       0.335900
     13 N13          1.7490    -3.4630    -0.8800 nd         1 6XE      -0.560000
     14 N14          0.7730    -1.2190     0.5210 nd         1 6XE      -0.423800
     15 C15          3.9310     2.5320    -0.1940 ca         1 6XE       0.197000
     16 C16          4.1630     1.6340    -1.2170 ca         1 6XE      -0.158000
     17 C17          3.4960     0.4190    -1.1960 ca         1 6XE      -0.049500
     18 C18          2.6090     0.1080    -0.1660 ca         1 6XE      -0.176500
     19 C19          2.3970     1.0430     0.8500 ca         1 6XE      -0.049500
     20 C20          3.0570     2.2580     0.8430 ca         1 6XE      -0.158000
     21 N22          0.1560    -2.3910     0.4860 na         1 6XE      -0.073500
     22 C23          0.5950    -3.5000    -0.1920 cd         1 6XE       0.301500
     23 N24         -0.2540    -4.4780    -0.0250 nc         1 6XE      -0.029000
     24 N25         -1.2440    -4.0040     0.7600 nc         1 6XE      -0.361700
     25 C26         -1.0100    -2.7560     1.0730 cd         1 6XE       0.374800
     26 C27         -1.8480    -1.8490     1.8950 c3         1 6XE      -0.032400
     27 H6          -1.2290     3.1800     1.1660 ha         1 6XE       0.117000
     28 H10         -1.1610     0.7770     1.8870 ha         1 6XE       0.114000
     29 H9          -4.7810    -0.2290    -1.3480 ha         1 6XE       0.135000
     30 H4          -4.0640     4.2330    -1.8660 h4         1 6XE       0.020100
     31 H5          -2.2570     4.9060    -0.3060 ha         1 6XE       0.124000
     32 H8          -3.8240    -2.0190     0.0440 ha         1 6XE       0.127000
     33 H271        -1.2560    -1.4430     2.7170 hc         1 6XE       0.079200
     34 H272        -2.6440    -2.4500     2.3370 hc         1 6XE       0.079200
     35 H12          3.3130    -2.2780    -1.3940 h4         1 6XE       0.047100
     36 H16          4.8440     1.8750    -2.0210 ha         1 6XE       0.139500
     37 H20          2.8990     2.9800     1.6330 ha         1 6XE       0.139500
     38 H17          3.6660    -0.2700    -2.0120 ha         1 6XE       0.127000
     39 H19          1.7170     0.8180     1.6600 ha         1 6XE       0.127000
     40 F21          4.5730     3.7050    -0.2060 f          1 6XE      -0.168000
@<TRIPOS>BOND
     1     1     2 ar  
     2     1     6 ar  
     3     1    10 ar  
     4     2     3 ar  
     5     2     9 ar  
     6     3     4 ar  
     7     4     5 ar  
     8     4    30 1   
     9     5     6 ar  
    10     5    31 1   
    11     6    27 1   
    12     7     8 ar  
    13     7    10 ar  
    14     7    26 1   
    15     8     9 ar  
    16     8    32 1   
    17     9    29 1   
    18    10    28 1   
    19    11    12 1   
    20    11    14 2   
    21    11    18 1   
    22    12    13 2   
    23    12    35 1   
    24    13    22 1   
    25    14    21 1   
    26    15    16 ar  
    27    15    20 ar  
    28    15    40 1   
    29    16    17 ar  
    30    16    36 1   
    31    17    18 ar  
    32    17    38 1   
    33    18    19 ar  
    34    19    20 ar  
    35    19    39 1   
    36    20    37 1   
    37    21    22 1   
    38    21    25 1   
    39    22    23 2   
    40    23    24 1   
    41    24    25 2   
    42    25    26 1   
    43    26    33 1   
    44    26    34 1   
@<TRIPOS>SUBSTRUCTURE
     1 6XE         1 TEMP              0 ****  ****    0 ROOT
