@<TRIPOS>MOLECULE
6XF
   52    54     1     0     0
SMALL
bcc


@<TRIPOS>ATOM
      1 CAA          7.5060     3.9600    -0.1510 c3         1 6XF       0.124700
      2 OAS          6.9380     3.1770     0.8820 os         1 6XF      -0.314900
      3 CAW          5.9330     2.3430     0.5810 ca         1 6XF       0.164100
      4 CAJ          5.4140     1.5880     1.6370 ca         1 6XF      -0.206000
      5 CAL          4.3790     0.7040     1.4160 ca         1 6XF      -0.045500
      6 CAI          5.3920     2.1930    -0.6970 ca         1 6XF      -0.206000
      7 CAK          4.3540     1.3010    -0.9060 ca         1 6XF      -0.045500
      8 CAX          3.8330     0.5450     0.1410 ca         1 6XF      -0.189500
      9 CBA          2.7400    -0.3960    -0.0740 cc         1 6XF       0.635500
     10 NAR          2.1560    -1.1050     0.9380 nc         1 6XF      -0.717000
     11 NAQ          2.2200    -0.6390    -1.2420 nd         1 6XF      -0.390300
     12 OAT          1.2430    -1.5650    -0.9800 os         1 6XF      -0.133100
     13 CAZ          1.2550    -1.7880     0.3220 cd         1 6XF       0.525700
     14 CAP          0.3250    -2.7960     0.9050 c3         1 6XF       0.070700
     15 NBC         -0.9210    -2.9070     0.1820 n          1 6XF      -0.482800
     16 CBB         -1.2840    -4.2030    -0.3980 c3         1 6XF       0.122700
     17 CAC         -0.2960    -4.6230    -1.4780 c3         1 6XF      -0.111100
     18 CAB         -1.4450    -5.2680     0.6800 c3         1 6XF      -0.111100
     19 CAU         -1.6830    -1.7910     0.1470 c          1 6XF       0.667100
     20 OAD         -1.2980    -0.7580     0.6740 o          1 6XF      -0.575100
     21 CAO         -3.0230    -1.8570    -0.5680 c3         1 6XF      -0.114100
     22 CAV         -3.6840    -0.5130    -0.5900 ca         1 6XF      -0.023300
     23 CAG         -4.5930    -0.1520     0.4000 ca         1 6XF      -0.124000
     24 CAM         -5.2020     1.0900     0.3900 ca         1 6XF      -0.060500
     25 CAY         -4.8910     1.9770    -0.6290 ca         1 6XF      -0.175200
     26 NBD         -5.5250     3.2840    -0.6530 no         1 6XF       0.314200
     27 OAF         -6.2940     3.5600     0.2380 o          1 6XF      -0.210000
     28 OAE         -5.2530     4.0340    -1.5620 o          1 6XF      -0.210000
     29 CAN         -3.9890     1.6450    -1.6310 ca         1 6XF      -0.060500
     30 CAH         -3.3920     0.3980    -1.6010 ca         1 6XF      -0.124000
     31 H1           6.7750     4.6430    -0.5920 h1         1 6XF       0.043033
     32 H2           8.2990     4.5450     0.3070 h1         1 6XF       0.043033
     33 H3           7.9340     3.3410    -0.9420 h1         1 6XF       0.043033
     34 H4           5.8320     1.7020     2.6290 ha         1 6XF       0.143500
     35 H5           3.9910     0.1260     2.2450 ha         1 6XF       0.150500
     36 H6           5.7640     2.7640    -1.5370 ha         1 6XF       0.143500
     37 H7           3.9480     1.2020    -1.9040 ha         1 6XF       0.150500
     38 H8           0.8310    -3.7630     0.9030 h1         1 6XF       0.084700
     39 H9           0.1690    -2.5340     1.9530 h1         1 6XF       0.084700
     40 H10         -2.2540    -4.0750    -0.8730 h1         1 6XF       0.056700
     41 H11          0.6990    -4.8140    -1.0720 hc         1 6XF       0.047367
     42 H12         -0.6360    -5.5480    -1.9440 hc         1 6XF       0.047367
     43 H13         -0.2110    -3.8650    -2.2550 hc         1 6XF       0.047367
     44 H14         -2.1330    -4.9400     1.4590 hc         1 6XF       0.047367
     45 H15         -1.8470    -6.1790     0.2370 hc         1 6XF       0.047367
     46 H16         -0.4940    -5.5300     1.1480 hc         1 6XF       0.047367
     47 H17         -2.8830    -2.2170    -1.5910 hc         1 6XF       0.072700
     48 H18         -3.6640    -2.5870    -0.0680 hc         1 6XF       0.072700
     49 H19         -4.8350    -0.8520     1.1890 ha         1 6XF       0.144500
     50 H20         -5.9070     1.3500     1.1670 ha         1 6XF       0.169500
     51 H21         -3.7510     2.3380    -2.4230 ha         1 6XF       0.169500
     52 H22         -2.6910     0.1320    -2.3820 ha         1 6XF       0.144500
@<TRIPOS>BOND
     1     1     2 1   
     2     1    31 1   
     3     1    32 1   
     4     1    33 1   
     5     2     3 1   
     6     3     4 ar  
     7     3     6 ar  
     8     4     5 ar  
     9     4    34 1   
    10     5     8 ar  
    11     5    35 1   
    12     6     7 ar  
    13     6    36 1   
    14     7     8 ar  
    15     7    37 1   
    16     8     9 1   
    17     9    10 1   
    18     9    11 2   
    19    10    13 2   
    20    11    12 1   
    21    12    13 1   
    22    13    14 1   
    23    14    15 1   
    24    14    38 1   
    25    14    39 1   
    26    15    16 1   
    27    15    19 1   
    28    16    17 1   
    29    16    18 1   
    30    16    40 1   
    31    17    41 1   
    32    17    42 1   
    33    17    43 1   
    34    18    44 1   
    35    18    45 1   
    36    18    46 1   
    37    19    20 2   
    38    19    21 1   
    39    21    22 1   
    40    21    47 1   
    41    21    48 1   
    42    22    23 ar  
    43    22    30 ar  
    44    23    24 ar  
    45    23    49 1   
    46    24    25 ar  
    47    24    50 1   
    48    25    26 1   
    49    25    29 ar  
    50    26    27 1   
    51    26    28 1   
    52    29    30 ar  
    53    29    51 1   
    54    30    52 1   
@<TRIPOS>SUBSTRUCTURE
     1 6XF         1 TEMP              0 ****  ****    0 ROOT
