@<TRIPOS>MOLECULE
6XF
   52    54     1     0     0
SMALL
No Charge or Current Charge


@<TRIPOS>ATOM
      1 CAA          6.6360     4.6970     0.2180 c3         1 6XF       0.147900
      2 OAS          6.4230     3.4760     0.9480 os         1 6XF      -0.338100
      3 CAW          5.3970     2.6050     0.6420 ca         1 6XF       0.164100
      4 CAJ          5.2730     1.4410     1.4120 ca         1 6XF      -0.188000
      5 CAL          4.2500     0.5140     1.1510 ca         1 6XF      -0.027500
      6 CAI          4.4830     2.8420    -0.4040 ca         1 6XF      -0.188000
      7 CAK          3.4570     1.9170    -0.6690 ca         1 6XF      -0.027500
      8 CAX          3.3250     0.7390     0.1040 ca         1 6XF      -0.189500
      9 CBA          2.2480    -0.2250    -0.1800 cc         1 6XF       0.635500
     10 NAR          2.1220    -1.3590     0.5680 nc         1 6XF      -0.717000
     11 NAQ          1.3630    -0.0580    -1.1510 nd         1 6XF      -0.390300
     12 OAT          0.5570    -1.2100    -1.0320 os         1 6XF      -0.088700
     13 CAZ          1.0670    -1.9170     0.0140 cd         1 6XF       0.481300
     14 CAP          0.4490    -3.2360     0.4290 c3         1 6XF       0.070700
     15 NBC         -1.0450    -3.2910     0.3530 n          1 6XF      -0.415800
     16 CBB         -1.6700    -4.5370    -0.1700 c3         1 6XF       0.122700
     17 CAC         -1.6590    -4.5700    -1.7110 c3         1 6XF      -0.111100
     18 CAB         -1.0720    -5.8260     0.4410 c3         1 6XF      -0.111100
     19 CAU         -1.7990    -2.3200     1.0590 c          1 6XF       0.600100
     20 OAD         -1.2830    -1.6850     1.9690 o          1 6XF      -0.575100
     21 CAO         -3.2340    -1.9860     0.6110 c3         1 6XF      -0.114100
     22 CAV         -3.2670    -0.6050    -0.0340 ca         1 6XF      -0.023300
     23 CAG         -3.8110     0.4950     0.6530 ca         1 6XF      -0.106000
     24 CAM         -3.8250     1.7700     0.0620 ca         1 6XF      -0.042500
     25 CAY         -3.2880     1.9640    -1.2320 ca         1 6XF      -0.175200
     26 NBD         -3.2970     3.3230    -1.8650 no         1 6XF       0.694200
     27 OAF         -3.7850     4.2640    -1.2240 o          1 6XF      -0.400000
     28 OAE         -2.8170     3.4440    -3.0000 o          1 6XF      -0.400000
     29 CAN         -2.7410     0.8560    -1.9200 ca         1 6XF      -0.042500
     30 CAH         -2.7340    -0.4160    -1.3220 ca         1 6XF      -0.106000
     31 H1           5.7600     5.3540     0.2920 h1         1 6XF       0.043033
     32 H2           7.5000     5.2370     0.6240 h1         1 6XF       0.043033
     33 H3           6.8320     4.4890    -0.8420 h1         1 6XF       0.043033
     34 H4           5.9760     1.2550     2.2200 ha         1 6XF       0.125500
     35 H5           4.1840    -0.3790     1.7700 ha         1 6XF       0.132500
     36 H6           4.5500     3.7330    -1.0210 ha         1 6XF       0.125500
     37 H7           2.7650     2.1260    -1.4840 ha         1 6XF       0.132500
     38 H8           0.8850    -4.0030    -0.2210 h1         1 6XF       0.084700
     39 H9           0.7600    -3.4580     1.4570 h1         1 6XF       0.084700
     40 H10         -2.7190    -4.5570     0.1440 h1         1 6XF       0.056700
     41 H11         -0.6330    -4.5810    -2.0970 hc         1 6XF       0.047367
     42 H12         -2.1760    -5.4630    -2.0820 hc         1 6XF       0.047367
     43 H13         -2.1710    -3.6900    -2.1190 hc         1 6XF       0.047367
     44 H14         -1.0660    -5.7650     1.5350 hc         1 6XF       0.047367
     45 H15         -1.6750    -6.6960     0.1550 hc         1 6XF       0.047367
     46 H16         -0.0470    -6.0050     0.0960 hc         1 6XF       0.047367
     47 H17         -3.6220    -2.7100    -0.1100 hc         1 6XF       0.072700
     48 H18         -3.8790    -2.0000     1.4970 hc         1 6XF       0.072700
     49 H19         -4.2220     0.3660     1.6520 ha         1 6XF       0.126500
     50 H20         -4.2520     2.6030     0.6200 ha         1 6XF       0.151500
     51 H21         -2.3180     0.9700    -2.9160 ha         1 6XF       0.151500
     52 H22         -2.3060    -1.2560    -1.8640 ha         1 6XF       0.126500
@<TRIPOS>BOND
     1     1     2 1   
     2     1    31 1   
     3     1    32 1   
     4     1    33 1   
     5     2     3 1   
     6     3     4 ar  
     7     3     6 ar  
     8     4     5 ar  
     9     4    34 1   
    10     5     8 ar  
    11     5    35 1   
    12     6     7 ar  
    13     6    36 1   
    14     7     8 ar  
    15     7    37 1   
    16     8     9 1   
    17     9    10 1   
    18     9    11 2   
    19    10    13 2   
    20    11    12 1   
    21    12    13 1   
    22    13    14 1   
    23    14    15 1   
    24    14    38 1   
    25    14    39 1   
    26    15    16 1   
    27    15    19 1   
    28    16    17 1   
    29    16    18 1   
    30    16    40 1   
    31    17    41 1   
    32    17    42 1   
    33    17    43 1   
    34    18    44 1   
    35    18    45 1   
    36    18    46 1   
    37    19    20 2   
    38    19    21 1   
    39    21    22 1   
    40    21    47 1   
    41    21    48 1   
    42    22    23 ar  
    43    22    30 ar  
    44    23    24 ar  
    45    23    49 1   
    46    24    25 ar  
    47    24    50 1   
    48    25    26 1   
    49    25    29 ar  
    50    26    27 1   
    51    26    28 1   
    52    29    30 ar  
    53    29    51 1   
    54    30    52 1   
@<TRIPOS>SUBSTRUCTURE
     1 6XF         1 TEMP              0 ****  ****    0 ROOT
