@<TRIPOS>MOLECULE
6XG
   58    61     1     0     0
SMALL
bcc


@<TRIPOS>ATOM
      1 C7          -3.2040    -1.1750     0.4320 ca         1 6XG      -0.116600
      2 C9          -2.7860    -3.5260     0.2730 ca         1 6XG      -0.099000
      3 C2          -6.2220     0.9920    -0.3280 c3         1 6XG       0.111700
      4 C10         -1.4280    -3.3000     0.3880 ca         1 6XG      -0.187000
      5 C1          -5.8250     2.0170    -1.3850 c3         1 6XG      -0.108600
      6 C3          -7.5880     0.3870    -0.6170 c3         1 6XG      -0.108600
      7 N4          -5.2400    -0.0780    -0.2340 ns         1 6XG      -0.570900
      8 C5          -4.1080     0.0190     0.4820 c          1 6XG       0.677700
      9 O6          -3.8170     1.0080     1.1420 o          1 6XG      -0.605100
     10 C8          -3.6900    -2.4700     0.2870 ca         1 6XG      -0.154000
     11 C11         -0.9300    -1.9960     0.5350 ca         1 6XG       0.187600
     12 C12         -1.8400    -0.9370     0.5740 ca         1 6XG      -0.128000
     13 N13          0.4360    -1.8350     0.6310 nu         1 6XG      -0.742300
     14 C14          1.1650    -0.6700     0.7240 cc         1 6XG       0.596200
     15 C15          2.5630    -0.5700     0.5500 cc         1 6XG      -0.339600
     16 C16          2.8300     0.7630     0.7470 cd         1 6XG      -0.057600
     17 N17          1.6630     1.3710     1.0120 na         1 6XG       0.120400
     18 N18          0.6360     0.5060     1.0010 nd         1 6XG      -0.556800
     19 C19          1.3940     2.7830     1.1610 c3         1 6XG       0.094300
     20 C20          0.8380     3.4020    -0.0930 cx         1 6XG      -0.161700
     21 C21         -0.0680     4.5900     0.0240 cx         1 6XG      -0.116900
     22 C22         -0.6170     3.2660    -0.4130 cx         1 6XG      -0.116900
     23 C23          4.1900     1.3590     0.6800 c6         1 6XG      -0.033100
     24 C24          5.1890     0.2070     0.8000 c6         1 6XG       0.109000
     25 N25          4.8490    -0.8830    -0.0990 n          1 6XG      -0.482800
     26 C26          3.6130    -1.5810     0.2240 c6         1 6XG       0.185300
     27 C27          5.5530    -1.2120    -1.2080 c          1 6XG       0.676100
     28 O28          5.2150    -2.1330    -1.9400 o          1 6XG      -0.602100
     29 C29          6.7950    -0.4050    -1.5070 c3         1 6XG      -0.177100
     30 H1          -3.1460    -4.5420     0.1730 ha         1 6XG       0.130000
     31 H2          -6.2540     1.4850     0.6450 h1         1 6XG       0.076700
     32 H3          -0.7410    -4.1380     0.3670 ha         1 6XG       0.128000
     33 H4          -6.5540     2.8280    -1.4250 hc         1 6XG       0.040867
     34 H5          -4.8500     2.4520    -1.1670 hc         1 6XG       0.040867
     35 H6          -5.7810     1.5560    -2.3740 hc         1 6XG       0.040867
     36 H7          -7.5940    -0.1260    -1.5820 hc         1 6XG       0.040867
     37 H8          -7.8770    -0.3290     0.1520 hc         1 6XG       0.040867
     38 H9          -8.3460     1.1690    -0.6550 hc         1 6XG       0.040867
     39 H10         -5.3380    -0.8470    -0.8780 hn         1 6XG       0.312500
     40 H11         -4.7510    -2.6700     0.2170 ha         1 6XG       0.132000
     41 H12         -1.4890     0.0730     0.7050 ha         1 6XG       0.182000
     42 H13          0.9820    -2.6740     0.5210 hn         1 6XG       0.442800
     43 H14          0.6980     2.9090     1.9930 h1         1 6XG       0.064700
     44 H15          2.3280     3.2680     1.4450 h1         1 6XG       0.064700
     45 H16          1.5220     3.4010    -0.9350 hc         1 6XG       0.080700
     46 H17         -0.3160     4.9410     1.0190 hc         1 6XG       0.078450
     47 H18          0.0300     5.3790    -0.7100 hc         1 6XG       0.078450
     48 H19         -0.8970     3.1460    -1.4520 hc         1 6XG       0.078450
     49 H20         -1.2430     2.7160     0.2790 hc         1 6XG       0.078450
     50 H21          4.3380     1.8960    -0.2610 hc         1 6XG       0.061700
     51 H22          4.3620     2.0750     1.4860 hc         1 6XG       0.061700
     52 H23          6.1970     0.5600     0.6110 h1         1 6XG       0.054200
     53 H24          5.1750    -0.1770     1.8230 h1         1 6XG       0.054200
     54 H25          3.7840    -2.2650     1.0650 h1         1 6XG       0.061700
     55 H26          3.3240    -2.1950    -0.6280 h1         1 6XG       0.061700
     56 H27          7.5560    -0.5500    -0.7400 hc         1 6XG       0.059700
     57 H28          7.2060    -0.7350    -2.4580 hc         1 6XG       0.059700
     58 H29          6.5920     0.6640    -1.5720 hc         1 6XG       0.059700
@<TRIPOS>BOND
     1     1     8 1   
     2     1    10 ar  
     3     1    12 ar  
     4     2     4 ar  
     5     2    10 ar  
     6     2    30 1   
     7     3     5 1   
     8     3     6 1   
     9     3     7 1   
    10     3    31 1   
    11     4    11 ar  
    12     4    32 1   
    13     5    33 1   
    14     5    34 1   
    15     5    35 1   
    16     6    36 1   
    17     6    37 1   
    18     6    38 1   
    19     7     8 1   
    20     7    39 1   
    21     8     9 2   
    22    10    40 1   
    23    11    12 ar  
    24    11    13 1   
    25    12    41 1   
    26    13    14 1   
    27    13    42 1   
    28    14    15 1   
    29    14    18 2   
    30    15    16 2   
    31    15    26 1   
    32    16    17 1   
    33    16    23 1   
    34    17    18 1   
    35    17    19 1   
    36    19    20 1   
    37    19    43 1   
    38    19    44 1   
    39    20    21 1   
    40    20    22 1   
    41    20    45 1   
    42    21    22 1   
    43    21    46 1   
    44    21    47 1   
    45    22    48 1   
    46    22    49 1   
    47    23    24 1   
    48    23    50 1   
    49    23    51 1   
    50    24    25 1   
    51    24    52 1   
    52    24    53 1   
    53    25    26 1   
    54    25    27 1   
    55    26    54 1   
    56    26    55 1   
    57    27    28 2   
    58    27    29 1   
    59    29    56 1   
    60    29    57 1   
    61    29    58 1   
@<TRIPOS>SUBSTRUCTURE
     1 6XG         1 TEMP              0 ****  ****    0 ROOT
