@<TRIPOS>MOLECULE
6XG
   58    61     1     0     0
SMALL
No Charge or Current Charge


@<TRIPOS>ATOM
      1 C7          -3.3590    -1.0680    -0.1100 ca         1 6XG      -0.116600
      2 C9          -2.7400    -3.3860     0.3850 ca         1 6XG      -0.081000
      3 C2          -6.8520     0.5290    -0.5310 c3         1 6XG       0.111700
      4 C10         -1.3800    -3.0420     0.3370 ca         1 6XG      -0.169000
      5 C1          -7.1470     0.6570    -2.0380 c3         1 6XG      -0.108600
      6 C3          -8.0760     0.0360     0.2620 c3         1 6XG      -0.108600
      7 N4          -5.7120    -0.3590    -0.3000 ns         1 6XG      -0.503900
      8 C5          -4.3870     0.0200    -0.3640 c          1 6XG       0.610700
      9 O6          -4.0670     1.1750    -0.6120 o          1 6XG      -0.605100
     10 C8          -3.7250    -2.4080     0.1670 ca         1 6XG      -0.136000
     11 C11         -0.9940    -1.7190     0.0790 ca         1 6XG       0.326000
     12 C12         -1.9810    -0.7440    -0.1520 ca         1 6XG      -0.110000
     13 N13          0.3680    -1.4180     0.0240 nu         1 6XG      -0.935900
     14 C14          1.0900    -0.3200     0.3830 cc         1 6XG       0.530900
     15 C15          2.4750    -0.2630     0.2190 cc         1 6XG      -0.274300
     16 C16          2.8600     0.9400     0.6870 cd         1 6XG      -0.108300
     17 N17          1.6780     1.5590     1.1170 na         1 6XG       0.141800
     18 N18          0.5600     0.7470     0.9260 nd         1 6XG      -0.556800
     19 C19          1.5540     2.9050     1.7040 c3         1 6XG       0.123600
     20 C20          1.7020     4.0720     0.7290 cx         1 6XG      -0.161700
     21 C21          1.0370     5.4020     0.9980 cx         1 6XG      -0.116900
     22 C22          0.5380     4.5210    -0.1250 cx         1 6XG      -0.116900
     23 C23          4.2850     1.4070     0.6740 c6         1 6XG      -0.033100
     24 C24          5.2330     0.1820     0.5630 c6         1 6XG       0.109000
     25 N25          4.8090    -0.8370    -0.4610 n          1 6XG      -0.415800
     26 C26          3.3890    -1.3040    -0.3690 c6         1 6XG       0.185300
     27 C27          5.7430    -1.6280    -1.1680 c          1 6XG       0.609100
     28 O28          5.3900    -2.6530    -1.7380 o          1 6XG      -0.602100
     29 C29          7.1970    -1.1610    -1.2740 c3         1 6XG      -0.177100
     30 H1          -3.0330    -4.4140     0.5920 ha         1 6XG       0.112000
     31 H2          -6.5920     1.5270    -0.1500 h1         1 6XG       0.076700
     32 H3          -0.6290    -3.8070     0.5080 ha         1 6XG       0.110000
     33 H4          -7.9850     1.3430    -2.2100 hc         1 6XG       0.040867
     34 H5          -6.2740     1.0480    -2.5730 hc         1 6XG       0.040867
     35 H6          -7.4060    -0.3180    -2.4690 hc         1 6XG       0.040867
     36 H7          -8.3850    -0.9620    -0.0730 hc         1 6XG       0.040867
     37 H8          -7.8460    -0.0160     1.3340 hc         1 6XG       0.040867
     38 H9          -8.9220     0.7200     0.1300 hc         1 6XG       0.040867
     39 H10         -5.8970    -1.3300    -0.0880 hn         1 6XG       0.312500
     40 H11         -4.7670    -2.7130     0.2110 ha         1 6XG       0.114000
     41 H12         -1.6750     0.2720    -0.3780 ha         1 6XG       0.164000
     42 H13          0.9630    -2.2260    -0.1250 hn         1 6XG       0.498000
     43 H14          0.5790     2.9720     2.2020 h1         1 6XG       0.064700
     44 H15          2.3180     3.0010     2.4850 h1         1 6XG       0.064700
     45 H16          2.6860     4.1020     0.2660 hc         1 6XG       0.080700
     46 H17          0.4110     5.4960     1.8830 hc         1 6XG       0.078450
     47 H18          1.5820     6.3050     0.7310 hc         1 6XG       0.078450
     48 H19          0.7490     4.8320    -1.1460 hc         1 6XG       0.078450
     49 H20         -0.4180     4.0210     0.0090 hc         1 6XG       0.078450
     50 H21          4.4490     2.0720    -0.1850 hc         1 6XG       0.061700
     51 H22          4.5260     1.9870     1.5750 hc         1 6XG       0.061700
     52 H23          6.2440     0.5580     0.3620 h1         1 6XG       0.054200
     53 H24          5.2690    -0.3190     1.5400 h1         1 6XG       0.054200
     54 H25          3.3600    -2.2190     0.2410 h1         1 6XG       0.061700
     55 H26          3.0370    -1.5740    -1.3750 h1         1 6XG       0.061700
     56 H27          7.6370    -1.1300    -0.2710 hc         1 6XG       0.059700
     57 H28          7.7920    -1.7940    -1.9420 hc         1 6XG       0.059700
     58 H29          7.2200    -0.1110    -1.5870 hc         1 6XG       0.059700
@<TRIPOS>BOND
     1     1     8 1   
     2     1    10 ar  
     3     1    12 ar  
     4     2     4 ar  
     5     2    10 ar  
     6     2    30 1   
     7     3     5 1   
     8     3     6 1   
     9     3     7 1   
    10     3    31 1   
    11     4    11 ar  
    12     4    32 1   
    13     5    33 1   
    14     5    34 1   
    15     5    35 1   
    16     6    36 1   
    17     6    37 1   
    18     6    38 1   
    19     7     8 1   
    20     7    39 1   
    21     8     9 2   
    22    10    40 1   
    23    11    12 ar  
    24    11    13 1   
    25    12    41 1   
    26    13    14 1   
    27    13    42 1   
    28    14    15 1   
    29    14    18 2   
    30    15    16 2   
    31    15    26 1   
    32    16    17 1   
    33    16    23 1   
    34    17    18 1   
    35    17    19 1   
    36    19    20 1   
    37    19    43 1   
    38    19    44 1   
    39    20    21 1   
    40    20    22 1   
    41    20    45 1   
    42    21    22 1   
    43    21    46 1   
    44    21    47 1   
    45    22    48 1   
    46    22    49 1   
    47    23    24 1   
    48    23    50 1   
    49    23    51 1   
    50    24    25 1   
    51    24    52 1   
    52    24    53 1   
    53    25    26 1   
    54    25    27 1   
    55    26    54 1   
    56    26    55 1   
    57    27    28 2   
    58    27    29 1   
    59    29    56 1   
    60    29    57 1   
    61    29    58 1   
@<TRIPOS>SUBSTRUCTURE
     1 6XG         1 TEMP              0 ****  ****    0 ROOT
