@<TRIPOS>MOLECULE
6XH
   56    60     1     0     0
SMALL
No Charge or Current Charge


@<TRIPOS>ATOM
      1 C7           3.2470     0.9520     0.0730 cc         1 6XH      -0.095300
      2 C9           1.2050     0.1190     0.0290 cd         1 6XH       0.539900
      3 C2           5.4750    -2.7030    -0.0050 c          1 6XH       0.608100
      4 C6           4.7380     1.0500     0.0970 c6         1 6XH      -0.040100
      5 C1           4.8360    -3.9580    -0.6060 c3         1 6XH      -0.177100
      6 C12          2.4890     3.3900     0.0670 c5         1 6XH       0.066300
      7 C14          3.0050     3.9780    -1.2770 c5         1 6XH      -0.127400
      8 C15          2.6830     5.4970    -1.1360 c5         1 6XH       0.159600
      9 C17          1.2490     4.2940     0.2550 c5         1 6XH       0.157600
     10 C19         -1.1950    -0.7610     0.0530 ca         1 6XH       0.290000
     11 C20         -1.8900     0.3440     0.5840 ca         1 6XH      -0.132000
     12 C21         -3.2950     0.3410     0.6610 ca         1 6XH      -0.085000
     13 C22         -4.0450    -0.7680     0.2180 ca         1 6XH       0.002000
     14 C23         -3.3520    -1.8820    -0.3010 ca         1 6XH      -0.116000
     15 C24         -1.9490    -1.8790    -0.3780 ca         1 6XH       0.092000
     16 C26         -5.5110    -0.7410     0.3100 cc         1 6XH      -0.149000
     17 C27         -6.3720     0.2590     0.7930 cc         1 6XH       0.253900
     18 C30         -6.3080    -1.7730    -0.0950 cd         1 6XH      -0.161000
     19 C32          3.2090    -1.5810     0.0310 c6         1 6XH       0.194300
     20 C5           5.3100    -0.2730     0.6670 c6         1 6XH       0.099000
     21 C8           2.5670    -0.2160     0.0440 cd         1 6XH      -0.289300
     22 F25         -1.3220    -2.9730    -0.8780 f          1 6XH      -0.197000
     23 N10          0.9780     1.4090     0.0270 nc         1 6XH      -0.565800
     24 N11          2.2610     1.9370     0.0610 na         1 6XH       0.135800
     25 N18          0.2100    -0.8020    -0.0320 nu         1 6XH      -0.931900
     26 N28         -7.6490    -0.0590     0.7240 nd         1 6XH      -0.525800
     27 N29         -7.6100    -1.3320     0.1680 na         1 6XH       0.133800
     28 N4           4.7080    -1.5190     0.0780 n          1 6XH      -0.411800
     29 O16          1.7750     5.6080    -0.0160 os         1 6XH      -0.451000
     30 O3           6.6460    -2.7260     0.3500 o          1 6XH      -0.605100
     31 H1           5.1230     1.2070    -0.9190 hc         1 6XH       0.065700
     32 H2           5.0820     1.8980     0.7030 hc         1 6XH       0.065700
     33 H3           4.3990    -3.7100    -1.5800 hc         1 6XH       0.062367
     34 H4           5.5450    -4.7900    -0.6880 hc         1 6XH       0.062367
     35 H5           3.9620    -4.2430    -0.0120 hc         1 6XH       0.062367
     36 H13          3.2060     3.6150     0.8670 h1         1 6XH       0.075700
     37 H6           4.0720     3.7890    -1.4350 hc         1 6XH       0.066200
     38 H7           2.4690     3.5480    -2.1320 hc         1 6XH       0.066200
     39 H8           3.5810     6.0920    -0.9230 h1         1 6XH       0.053700
     40 H9           2.2050     5.8970    -2.0410 h1         1 6XH       0.053700
     41 H10          0.4520     4.0660    -0.4660 h1         1 6XH       0.057200
     42 H11          0.8370     4.2520     1.2720 h1         1 6XH       0.057200
     43 H12         -1.3520     1.2080     0.9560 ha         1 6XH       0.155000
     44 H14         -3.7960     1.2110     1.0760 ha         1 6XH       0.118000
     45 H15         -3.8860    -2.7600    -0.6490 ha         1 6XH       0.123000
     46 H16         -6.1010     1.2250     1.1980 h4         1 6XH       0.039100
     47 H17         -6.0900    -2.7410    -0.5290 h4         1 6XH       0.152000
     48 H18         -9.4800    -1.5120    -0.7860 h1         1 6XH       0.056367
     49 H19         -8.6120    -3.0540    -0.5260 h1         1 6XH       0.056367
     50 H20         -9.3910    -2.2250     0.8540 h1         1 6XH       0.056367
     51 H21          2.8510    -2.1660     0.8900 h1         1 6XH       0.052700
     52 H22          2.8960    -2.1060    -0.8820 h1         1 6XH       0.052700
     53 H23          6.3990    -0.2680     0.5190 h1         1 6XH       0.067200
     54 H24          5.1370    -0.2920     1.7530 h1         1 6XH       0.067200
     55 H25          0.5670    -1.7240    -0.2660 hn         1 6XH       0.507000
     56 C31         -8.8500    -2.0780    -0.0890 c3         1 6XH       0.073900
@<TRIPOS>BOND
     1     1     4 1   
     2     1    21 2   
     3     1    24 1   
     4     2    21 1   
     5     2    23 2   
     6     2    25 1   
     7     3     5 1   
     8     3    28 1   
     9     3    30 2   
    10     4    20 1   
    11     4    31 1   
    12     4    32 1   
    13     5    33 1   
    14     5    34 1   
    15     5    35 1   
    16     6     7 1   
    17     6     9 1   
    18     6    24 1   
    19     6    36 1   
    20     7     8 1   
    21     7    37 1   
    22     7    38 1   
    23     8    29 1   
    24     8    39 1   
    25     8    40 1   
    26     9    29 1   
    27     9    41 1   
    28     9    42 1   
    29    10    11 ar  
    30    10    15 ar  
    31    10    25 1   
    32    11    12 ar  
    33    11    43 1   
    34    12    13 ar  
    35    12    44 1   
    36    13    14 ar  
    37    13    16 1   
    38    14    15 ar  
    39    14    45 1   
    40    15    22 1   
    41    16    17 1   
    42    16    18 2   
    43    17    26 2   
    44    17    46 1   
    45    18    27 1   
    46    18    47 1   
    47    19    21 1   
    48    19    28 1   
    49    19    51 1   
    50    19    52 1   
    51    20    28 1   
    52    20    53 1   
    53    20    54 1   
    54    23    24 1   
    55    25    55 1   
    56    26    27 1   
    57    27    56 1   
    58    48    56 1   
    59    49    56 1   
    60    50    56 1   
@<TRIPOS>SUBSTRUCTURE
     1 6XH         1 TEMP              0 ****  ****    0 ROOT
