@<TRIPOS>MOLECULE
6XH
   56    60     1     0     0
SMALL
abcg2


@<TRIPOS>ATOM
      1 C7           3.4010     0.7630     0.3940 cc         1 6XH      -0.095300
      2 C9           1.3810    -0.1020     0.4490 cd         1 6XH       0.539900
      3 C2           5.4710    -2.1660    -0.7340 c          1 6XH       0.608100
      4 C6           4.8800     0.9230     0.4020 c6         1 6XH      -0.040100
      5 C1           4.7320    -3.3060    -1.3940 c3         1 6XH      -0.177100
      6 C12          2.6490     3.1260     0.0270 c5         1 6XH       0.066300
      7 C14          2.3090     3.5450    -1.4040 c5         1 6XH      -0.127400
      8 C15          0.8140     3.8320    -1.3280 c5         1 6XH       0.159600
      9 C17          1.6800     3.9910     0.8300 c5         1 6XH       0.157600
     10 C19         -1.0100    -0.7650     0.3970 ca         1 6XH       0.290000
     11 C20         -1.6090     0.4850     0.2130 ca         1 6XH      -0.132000
     12 C21         -2.9860     0.6020     0.0840 ca         1 6XH      -0.085000
     13 C22         -3.8340    -0.5000     0.1360 ca         1 6XH       0.002000
     14 C23         -3.2430    -1.7540     0.3260 ca         1 6XH      -0.116000
     15 C24         -1.8810    -1.8590     0.4460 ca         1 6XH       0.092000
     16 C26         -5.2810    -0.3650    -0.0000 cc         1 6XH      -0.149000
     17 C27         -6.0560     0.8130    -0.0350 cc         1 6XH       0.253900
     18 C30         -6.2250    -1.3690    -0.1240 cd         1 6XH      -0.161000
     19 C32          3.4690    -1.7400     0.6780 c6         1 6XH       0.194300
     20 C5           5.4770    -0.3840     0.9300 c6         1 6XH       0.099000
     21 C8           2.7480    -0.4400     0.5170 cd         1 6XH      -0.289300
     22 F25         -1.3370    -3.0810     0.6270 f          1 6XH      -0.197000
     23 N10          1.2190     1.1970     0.2910 nc         1 6XH      -0.565800
     24 N11          2.4590     1.7130     0.2650 na         1 6XH       0.135800
     25 N18          0.3400    -0.9980     0.5330 nu         1 6XH      -0.931900
     26 N28         -7.3420     0.5480    -0.1670 nd         1 6XH      -0.525800
     27 N29         -7.4260    -0.7760    -0.2190 na         1 6XH       0.133800
     28 N4           4.8580    -1.5390     0.2990 n          1 6XH      -0.411800
     29 O16          0.5490     4.2200     0.0120 os         1 6XH      -0.451000
     30 O3           6.5880    -1.8390    -1.1120 o          1 6XH      -0.605100
     31 H1           5.2540     1.1340    -0.6040 hc         1 6XH       0.065700
     32 H2           5.1960     1.7510     1.0400 hc         1 6XH       0.065700
     33 H3           3.8450    -2.9540    -1.9230 hc         1 6XH       0.062367
     34 H4           5.3910    -3.7810    -2.1160 hc         1 6XH       0.062367
     35 H5           4.4080    -4.0590    -0.6740 hc         1 6XH       0.062367
     36 H13          3.6820     3.3540     0.2860 h1         1 6XH       0.075700
     37 H6           2.8670     4.4500    -1.6490 hc         1 6XH       0.066200
     38 H7           2.5610     2.7840    -2.1420 hc         1 6XH       0.066200
     39 H8           0.5150     4.6350    -2.0060 h1         1 6XH       0.053700
     40 H9           0.2290     2.9430    -1.5790 h1         1 6XH       0.053700
     41 H10          1.3780     3.5150     1.7650 h1         1 6XH       0.057200
     42 H11          2.1710     4.9390     1.0770 h1         1 6XH       0.057200
     43 H12         -0.9920     1.3690     0.1720 ha         1 6XH       0.155000
     44 H14         -3.3930     1.5940    -0.0680 ha         1 6XH       0.118000
     45 H15         -3.8390    -2.6560     0.3820 ha         1 6XH       0.123000
     46 H16         -5.7240     1.8370     0.0380 h4         1 6XH       0.039100
     47 H17         -6.1270    -2.4420    -0.1560 h4         1 6XH       0.152000
     48 H18         -9.1390    -1.1600    -1.3530 h1         1 6XH       0.056367
     49 H19         -8.5710    -2.4940    -0.3390 h1         1 6XH       0.056367
     50 H20         -9.3890    -1.1110     0.4020 h1         1 6XH       0.056367
     51 H21          3.4250    -2.0940     1.7140 h1         1 6XH       0.052700
     52 H22          3.0170    -2.5190     0.0680 h1         1 6XH       0.052700
     53 H23          6.5500    -0.4090     0.7680 h1         1 6XH       0.067200
     54 H24          5.3040    -0.4550     2.0060 h1         1 6XH       0.067200
     55 H25          0.6130    -1.9560     0.6710 hn         1 6XH       0.507000
     56 C31         -8.7070    -1.4180    -0.3880 c3         1 6XH       0.073900
@<TRIPOS>BOND
     1     1     4 1   
     2     1    21 2   
     3     1    24 1   
     4     2    21 1   
     5     2    23 2   
     6     2    25 1   
     7     3     5 1   
     8     3    28 1   
     9     3    30 2   
    10     4    20 1   
    11     4    31 1   
    12     4    32 1   
    13     5    33 1   
    14     5    34 1   
    15     5    35 1   
    16     6     7 1   
    17     6     9 1   
    18     6    24 1   
    19     6    36 1   
    20     7     8 1   
    21     7    37 1   
    22     7    38 1   
    23     8    29 1   
    24     8    39 1   
    25     8    40 1   
    26     9    29 1   
    27     9    41 1   
    28     9    42 1   
    29    10    11 ar  
    30    10    15 ar  
    31    10    25 1   
    32    11    12 ar  
    33    11    43 1   
    34    12    13 ar  
    35    12    44 1   
    36    13    14 ar  
    37    13    16 1   
    38    14    15 ar  
    39    14    45 1   
    40    15    22 1   
    41    16    17 1   
    42    16    18 2   
    43    17    26 2   
    44    17    46 1   
    45    18    27 1   
    46    18    47 1   
    47    19    21 1   
    48    19    28 1   
    49    19    51 1   
    50    19    52 1   
    51    20    28 1   
    52    20    53 1   
    53    20    54 1   
    54    23    24 1   
    55    25    55 1   
    56    26    27 1   
    57    27    56 1   
    58    48    56 1   
    59    49    56 1   
    60    50    56 1   
@<TRIPOS>SUBSTRUCTURE
     1 6XH         1 TEMP              0 ****  ****    0 ROOT
