@<TRIPOS>MOLECULE
6XI
   19    20     1     0     0
SMALL
abcg2


@<TRIPOS>ATOM
      1 C11          3.5440     0.6300    -0.4250 cc         1 6XI      -0.214000
      2 C12          2.2960     1.0880    -0.7500 cd         1 6XI      -0.165000
      3 O01          0.0580    -2.3070    -0.3750 o          1 6XI      -0.697500
      4 C03         -1.0010    -0.2290    -0.0210 cc         1 6XI      -0.219600
      5 C04          0.0040     0.7020     0.0370 cd         1 6XI      -0.076200
      6 C05         -0.4740     2.0410     0.1280 cd         1 6XI      -0.143000
      7 C06         -1.8330     2.1030     0.1370 cc         1 6XI      -0.319000
      8 S07         -2.5340     0.5460     0.0520 ss         1 6XI       0.258000
      9 N08          1.3830     0.4330     0.0360 na         1 6XI       0.176200
     10 C09          2.0400    -0.4300     0.8660 cd         1 6XI      -0.165000
     11 C10          3.3810    -0.3330     0.6080 cc         1 6XI      -0.214000
     12 O13         -2.1670    -2.2260    -0.1550 o          1 6XI      -0.697500
     13 H111         4.4700     0.9440    -0.8810 ha         1 6XI       0.108500
     14 H121         1.9780     1.8120    -1.4830 h4         1 6XI       0.144000
     15 H051         0.1730     2.9050     0.1970 ha         1 6XI       0.116000
     16 H061        -2.4480     2.9870     0.2070 h4         1 6XI       0.125000
     17 H091         1.5020    -1.0350     1.5740 h4         1 6XI       0.144000
     18 H101         4.1600    -0.8890     1.1060 ha         1 6XI       0.108500
     19 C02         -1.0240    -1.7280    -0.1960 c          1 6XI       0.731600
@<TRIPOS>BOND
     1     1     2 2   
     2     1    11 1   
     3     1    13 1   
     4     2     9 1   
     5     2    14 1   
     6     3    19 1   
     7     4     5 2   
     8     4     8 1   
     9     4    19 1   
    10     5     6 1   
    11     5     9 1   
    12     6     7 2   
    13     6    15 1   
    14     7     8 1   
    15     7    16 1   
    16     9    10 1   
    17    10    11 2   
    18    10    17 1   
    19    11    18 1   
    20    12    19 1   
@<TRIPOS>SUBSTRUCTURE
     1 6XI         1 TEMP              0 ****  ****    0 ROOT
