@<TRIPOS>MOLECULE
6XI
   19    20     1     0     0
SMALL
No Charge or Current Charge


@<TRIPOS>ATOM
      1 C11          3.4790     0.7230    -0.3150 cc         1 6XI      -0.214000
      2 C12          2.2660     1.0970    -0.8350 cd         1 6XI      -0.165000
      3 O01         -0.0130    -2.3140    -0.5800 o          1 6XI      -0.697500
      4 C03         -1.0080    -0.2670     0.0450 cc         1 6XI      -0.219600
      5 C04          0.0250     0.6540    -0.0640 cd         1 6XI      -0.076200
      6 C05         -0.3750     2.0180     0.0050 cd         1 6XI      -0.143000
      7 C06         -1.7230     2.1610     0.2090 cc         1 6XI      -0.319000
      8 S07         -2.5120     0.5890     0.3780 ss         1 6XI       0.258000
      9 N08          1.3480     0.2240    -0.2450 na         1 6XI       0.176200
     10 C09          1.9370    -0.5500     0.7600 cd         1 6XI      -0.165000
     11 C10          3.2780    -0.2810     0.6580 cc         1 6XI      -0.214000
     12 O13         -2.0630    -2.3370     0.0130 o          1 6XI      -0.697500
     13 H111         4.4430     1.1600    -0.5620 ha         1 6XI       0.108500
     14 H121         1.9940     1.8630    -1.5510 h4         1 6XI       0.144000
     15 H051         0.3060     2.8600    -0.0810 ha         1 6XI       0.116000
     16 H061        -2.3090     3.0650     0.3060 h4         1 6XI       0.125000
     17 H091         1.3820    -1.1920     1.4320 h4         1 6XI       0.144000
     18 H101         4.0660    -0.7180     1.2650 ha         1 6XI       0.108500
     19 C02         -1.0130    -1.7410    -0.1750 c          1 6XI       0.731600
@<TRIPOS>BOND
     1     1     2 2   
     2     1    11 1   
     3     1    13 1   
     4     2     9 1   
     5     2    14 1   
     6     3    19 1   
     7     4     5 2   
     8     4     8 1   
     9     4    19 1   
    10     5     6 1   
    11     5     9 1   
    12     6     7 2   
    13     6    15 1   
    14     7     8 1   
    15     7    16 1   
    16     9    10 1   
    17    10    11 2   
    18    10    17 1   
    19    11    18 1   
    20    12    19 1   
@<TRIPOS>SUBSTRUCTURE
     1 6XI         1 TEMP              0 ****  ****    0 ROOT
