@<TRIPOS>MOLECULE
6XJ
   81    84     1     0     0
SMALL
No Charge or Current Charge


@<TRIPOS>ATOM
      1 C1           3.1630    -5.2840    -1.2150 c          1 6XJ       0.598100
      2 C2           4.4800    -4.5730    -1.5280 c3         1 6XJ      -0.174400
      3 C3           4.5730    -3.2150    -0.8020 c3         1 6XJ       0.120700
      4 C7           5.8770     1.2620    -0.3420 ca         1 6XJ      -0.090000
      5 C8           6.1390     1.3100     1.0380 ca         1 6XJ       0.120000
      6 C9           6.3460     0.1120     1.7530 ca         1 6XJ       0.128000
      7 C10          6.2980    -1.1230     1.0830 ca         1 6XJ      -0.081000
      8 C12          1.9320    -0.4310    -1.1000 c3         1 6XJ       0.017000
      9 C13          2.2900     1.9540    -0.4030 ca         1 6XJ      -0.037000
     10 C14          2.4140     2.5310    -1.6850 ca         1 6XJ      -0.127000
     11 C15          2.9960     3.7980    -1.8530 ca         1 6XJ      -0.102000
     12 C16          3.4120     4.5310    -0.7330 ca         1 6XJ      -0.118000
     13 C19          2.4720     2.1690     2.1290 c3         1 6XJ      -0.042100
     14 C20          0.9990     2.1900     2.5800 c3         1 6XJ      -0.073400
     15 C21         -0.0130     1.8130     1.4710 c3         1 6XJ       0.038700
     16 C22          0.4290     0.5790     0.6250 c          1 6XJ       0.568000
     17 C24         -3.7980     1.4600     2.1560 c3         1 6XJ      -0.203400
     18 C27         -6.6700    -1.1010     1.3150 ca         1 6XJ      -0.049300
     19 C30         -8.0780    -3.1520    -0.0120 ca         1 6XJ      -0.017900
     20 C31         -7.6480    -3.3400     1.3120 ca         1 6XJ      -0.085500
     21 C32         -6.9470    -2.3160     1.9740 ca         1 6XJ      -0.096500
     22 Br          -9.0320    -4.5430    -0.9120 br         1 6XJ      -0.111100
     23 C29         -7.8100    -1.9430    -0.6750 ca         1 6XJ      -0.085500
     24 C28         -7.1080    -0.9200    -0.0130 ca         1 6XJ      -0.096500
     25 C26         -5.9170     0.0170     2.0320 c3         1 6XJ      -0.027100
     26 C25         -4.4740     0.2360     1.5040 c3         1 6XJ       0.174500
     27 N4          -3.6470    -0.9690     1.7180 n8         1 6XJ      -1.003200
     28 O3          -2.5700     2.4030     0.3030 o          1 6XJ      -0.596100
     29 N3          -1.3560     1.6020     2.0550 ns         1 6XJ      -0.494900
     30 C18          2.6490     2.7310     0.7250 ca         1 6XJ      -0.086300
     31 C17          3.2260     4.0040     0.5530 ca         1 6XJ      -0.092000
     32 O2          -0.1820    -0.4860     0.6960 o          1 6XJ      -0.541000
     33 N2           1.5400     0.7290    -0.2510 n          1 6XJ      -0.213400
     34 O1           3.0000    -1.4590     0.8330 o          1 6XJ      -0.569100
     35 N1           3.4840    -2.3270    -1.2200 ns         1 6XJ      -0.512900
     36 O            2.9350    -5.7930    -0.1270 o          1 6XJ      -0.585100
     37 N            2.2650    -5.3470    -2.2560 ns         1 6XJ      -0.509900
     38 C            0.9500    -5.9860    -2.1740 c3         1 6XJ       0.093300
     39 C4           5.9440    -2.5230    -1.0100 c3         1 6XJ      -0.053100
     40 C5           6.0400    -1.1740    -0.3000 ca         1 6XJ      -0.064300
     41 Cl1          6.2190     2.8750     1.8470 cl         1 6XJ      -0.182000
     42 C6           5.8290     0.0260    -1.0090 ca         1 6XJ      -0.101000
     43 H1           5.3040    -5.2070    -1.1810 hc         1 6XJ       0.060200
     44 H2           4.5760    -4.4060    -2.6080 hc         1 6XJ       0.060200
     45 H3           4.4660    -3.4130     0.2750 h1         1 6XJ       0.111700
     46 H4           5.7080     2.1850    -0.8920 ha         1 6XJ       0.134000
     47 H5           6.4500    -2.0410     1.6450 ha         1 6XJ       0.133000
     48 H6           2.4810    -0.0830    -1.9820 h1         1 6XJ       0.074700
     49 H7           1.0420    -0.9630    -1.4580 h1         1 6XJ       0.074700
     50 H8           2.0520     2.0040    -2.5650 ha         1 6XJ       0.119000
     51 H9           3.1070     4.2190    -2.8500 ha         1 6XJ       0.117000
     52 H10          3.8580     5.5150    -0.8590 ha         1 6XJ       0.119000
     53 H11          3.0790     2.7230     2.8560 hc         1 6XJ       0.075200
     54 H12          2.8470     1.1380     2.1620 hc         1 6XJ       0.075200
     55 H13          0.8890     1.5070     3.4310 hc         1 6XJ       0.053700
     56 H14          0.7520     3.1940     2.9490 hc         1 6XJ       0.053700
     57 H15         -0.0690     2.6550     0.7680 h1         1 6XJ       0.093700
     58 H16         -4.4970     2.3040     2.1100 hc         1 6XJ       0.063200
     59 H17         -3.5700     1.2360     3.2050 hc         1 6XJ       0.063200
     60 H18         -7.8560    -4.2750     1.8250 ha         1 6XJ       0.126500
     61 H19         -6.6160    -2.4700     2.9980 ha         1 6XJ       0.114500
     62 H20         -8.1440    -1.7970    -1.7000 ha         1 6XJ       0.126500
     63 H21         -6.9070     0.0140    -0.5320 ha         1 6XJ       0.114500
     64 H22         -6.4800     0.9510     1.9150 hc         1 6XJ       0.045200
     65 H23         -5.8810    -0.1750     3.1120 hc         1 6XJ       0.045200
     66 H24         -4.5430     0.4200     0.4200 h1         1 6XJ       0.083700
     67 H25         -2.6910    -0.8040     1.3790 hn         1 6XJ       0.408500
     68 H26         -3.5290    -1.1270     2.7250 hn         1 6XJ       0.408500
     69 H28         -1.4270     1.1590     2.9640 hn         1 6XJ       0.316500
     70 H29          3.5300     4.5890     1.4190 ha         1 6XJ       0.120000
     71 H30          3.2930    -2.2380    -2.2110 hn         1 6XJ       0.300500
     72 H31          2.5440    -4.9170    -3.1310 hn         1 6XJ       0.309500
     73 H32          1.0700    -7.0500    -1.9330 h1         1 6XJ       0.043367
     74 H33          0.3520    -5.5000    -1.3920 h1         1 6XJ       0.043367
     75 H34          0.4330    -5.8880    -3.1370 h1         1 6XJ       0.043367
     76 H35          6.7390    -3.1880    -0.6490 hc         1 6XJ       0.052700
     77 H36          6.1220    -2.3950    -2.0850 hc         1 6XJ       0.052700
     78 H37          5.6170     0.0000    -2.0760 ha         1 6XJ       0.112000
     79 C11          2.8390    -1.4410    -0.3800 c          1 6XJ       0.593100
     80 Cl           6.6650     0.1320     3.4880 cl         1 6XJ      -0.174000
     81 C23         -2.5360     1.8670     1.4020 c          1 6XJ       0.600100
@<TRIPOS>BOND
     1     1     2 1   
     2     1    36 2   
     3     1    37 1   
     4     2     3 1   
     5     2    43 1   
     6     2    44 1   
     7     3    35 1   
     8     3    39 1   
     9     3    45 1   
    10     4     5 ar  
    11     4    42 ar  
    12     4    46 1   
    13     5     6 ar  
    14     5    41 1   
    15     6     7 ar  
    16     6    80 1   
    17     7    40 ar  
    18     7    47 1   
    19     8    33 1   
    20     8    48 1   
    21     8    49 1   
    22     8    79 1   
    23     9    10 ar  
    24     9    30 ar  
    25     9    33 1   
    26    10    11 ar  
    27    10    50 1   
    28    11    12 ar  
    29    11    51 1   
    30    12    31 ar  
    31    12    52 1   
    32    13    14 1   
    33    13    30 1   
    34    13    53 1   
    35    13    54 1   
    36    14    15 1   
    37    14    55 1   
    38    14    56 1   
    39    15    16 1   
    40    15    29 1   
    41    15    57 1   
    42    16    32 2   
    43    16    33 1   
    44    17    26 1   
    45    17    58 1   
    46    17    59 1   
    47    17    81 1   
    48    18    21 ar  
    49    18    24 ar  
    50    18    25 1   
    51    19    20 ar  
    52    19    22 1   
    53    19    23 ar  
    54    20    21 ar  
    55    20    60 1   
    56    21    61 1   
    57    23    24 ar  
    58    23    62 1   
    59    24    63 1   
    60    25    26 1   
    61    25    64 1   
    62    25    65 1   
    63    26    27 1   
    64    26    66 1   
    65    27    67 1   
    66    27    68 1   
    67    28    81 2   
    68    29    69 1   
    69    29    81 1   
    70    30    31 ar  
    71    31    70 1   
    72    34    79 2   
    73    35    71 1   
    74    35    79 1   
    75    37    38 1   
    76    37    72 1   
    77    38    73 1   
    78    38    74 1   
    79    38    75 1   
    80    39    40 1   
    81    39    76 1   
    82    39    77 1   
    83    40    42 ar  
    84    42    78 1   
@<TRIPOS>SUBSTRUCTURE
     1 6XJ         1 TEMP              0 ****  ****    0 ROOT
