@<TRIPOS>MOLECULE
6XJ
   81    84     1     0     0
SMALL
abcg2


@<TRIPOS>ATOM
      1 C1           2.6160    -4.9280    -1.3370 c          1 6XJ       0.598100
      2 C2           3.9910    -4.3450    -1.5930 c3         1 6XJ      -0.174400
      3 C3           4.1960    -3.0540    -0.8090 c3         1 6XJ       0.120700
      4 C7           5.7240     1.1330     0.0420 ca         1 6XJ      -0.090000
      5 C8           6.0660     1.0300     1.3810 ca         1 6XJ       0.120000
      6 C9           6.2970    -0.2230     1.9360 ca         1 6XJ       0.128000
      7 C10          6.1830    -1.3610     1.1560 ca         1 6XJ      -0.081000
      8 C12          1.6970    -0.2250    -1.1280 c3         1 6XJ       0.017000
      9 C13          2.1580     2.0820    -0.3830 ca         1 6XJ      -0.037000
     10 C14          2.4340     2.6480    -1.6230 ca         1 6XJ      -0.127000
     11 C15          3.2150     3.7890    -1.7150 ca         1 6XJ      -0.102000
     12 C16          3.7020     4.3870    -0.5610 ca         1 6XJ      -0.118000
     13 C19          2.3900     2.0280     2.1150 c3         1 6XJ      -0.042100
     14 C20          0.9320     2.2010     2.5480 c3         1 6XJ      -0.073400
     15 C21         -0.0430     2.0290     1.3790 c3         1 6XJ       0.038700
     16 C22          0.3030     0.7900     0.5470 c          1 6XJ       0.568000
     17 C24         -3.7880     1.6970     1.6670 c3         1 6XJ      -0.203400
     18 C27         -6.2500    -1.2540     1.2850 ca         1 6XJ      -0.049300
     19 C30         -7.2770    -3.6640     0.3390 ca         1 6XJ      -0.017900
     20 C31         -6.6710    -3.6210     1.5870 ca         1 6XJ      -0.085500
     21 C32         -6.1600    -2.4160     2.0460 ca         1 6XJ      -0.096500
     22 BR          -7.9800    -5.3000    -0.2990 br         1 6XJ      -0.111100
     23 C29         -7.3790    -2.5250    -0.4450 ca         1 6XJ      -0.085500
     24 C28         -6.8640    -1.3300     0.0380 ca         1 6XJ      -0.096500
     25 C26         -5.6790     0.0460     1.7710 c3         1 6XJ      -0.027100
     26 C25         -4.2350     0.2650     1.3070 c3         1 6XJ       0.174500
     27 N4          -3.3860    -0.7790     1.8430 n8         1 6XJ      -1.003200
     28 O3          -2.3250     2.2330    -0.1520 o          1 6XJ      -0.596100
     29 N3          -1.3880     1.9450     1.8710 ns         1 6XJ      -0.494900
     30 C18          2.6700     2.6570     0.7830 ca         1 6XJ      -0.086300
     31 C17          3.4190     3.8240     0.6740 ca         1 6XJ      -0.092000
     32 O2          -0.3360    -0.2420     0.6340 o          1 6XJ      -0.541000
     33 N2           1.3500     0.9140    -0.3120 n          1 6XJ      -0.213400
     34 O1           2.6970    -1.2410     0.8160 o          1 6XJ      -0.569100
     35 N1           3.2230    -2.0690    -1.2280 ns         1 6XJ      -0.512900
     36 O            2.1850    -5.0820    -0.2020 o          1 6XJ      -0.585100
     37 N            1.9180    -5.2690    -2.4260 ns         1 6XJ      -0.509900
     38 C            0.6010    -5.8560    -2.3500 c3         1 6XJ       0.093300
     39 C4           5.6260    -2.5190    -0.9880 c3         1 6XJ      -0.053100
     40 C5           5.8400    -1.2700    -0.1880 ca         1 6XJ      -0.064300
     41 CL1          6.2180     2.4530     2.3420 cl         1 6XJ      -0.182000
     42 C6           5.6200    -0.0100    -0.7350 ca         1 6XJ      -0.101000
     43 H1           4.7340    -5.0790    -1.2710 hc         1 6XJ       0.060200
     44 H2           4.1670    -4.1710    -2.6580 hc         1 6XJ       0.060200
     45 H3           4.0220    -3.2530     0.2490 h1         1 6XJ       0.111700
     46 H4           5.5350     2.1060    -0.3910 ha         1 6XJ       0.134000
     47 H5           6.3590    -2.3300     1.6040 ha         1 6XJ       0.133000
     48 H6           2.1920     0.1180    -2.0350 h1         1 6XJ       0.074700
     49 H7           0.7920    -0.7440    -1.4470 h1         1 6XJ       0.074700
     50 H8           2.0250     2.2100    -2.5250 ha         1 6XJ       0.119000
     51 H9           3.4240     4.2190    -2.6860 ha         1 6XJ       0.117000
     52 H10          4.3010     5.2870    -0.6220 ha         1 6XJ       0.119000
     53 H11          3.0450     2.4600     2.8720 hc         1 6XJ       0.075200
     54 H12          2.6340     0.9650     2.0570 hc         1 6XJ       0.075200
     55 H13          0.7030     1.4730     3.3310 hc         1 6XJ       0.053700
     56 H14          0.7740     3.1940     2.9710 hc         1 6XJ       0.053700
     57 H15          0.0320     2.9080     0.7340 h1         1 6XJ       0.093700
     58 H16         -4.5100     2.4180     1.2800 hc         1 6XJ       0.063200
     59 H17         -3.7620     1.8060     2.7550 hc         1 6XJ       0.063200
     60 H18         -6.5920    -4.5090     2.2000 ha         1 6XJ       0.126500
     61 H19         -5.6900    -2.3840     3.0200 ha         1 6XJ       0.114500
     62 H20         -7.8560    -2.5550    -1.4160 ha         1 6XJ       0.126500
     63 H21         -6.9470    -0.4390    -0.5720 ha         1 6XJ       0.114500
     64 H22         -6.2940     0.8740     1.4080 hc         1 6XJ       0.045200
     65 H23         -5.7130     0.0870     2.8640 hc         1 6XJ       0.045200
     66 H24         -4.2170     0.1790     0.2150 h1         1 6XJ       0.083700
     67 H25         -2.4300    -0.6680     1.5240 hn         1 6XJ       0.408500
     68 H26         -3.3600    -0.7160     2.8540 hn         1 6XJ       0.408500
     69 H28         -1.5320     1.6530     2.8250 hn         1 6XJ       0.316500
     70 H29          3.8040     4.2830     1.5760 ha         1 6XJ       0.120000
     71 H30          3.1300    -1.9150    -2.2210 hn         1 6XJ       0.300500
     72 H31          2.3160    -5.1080    -3.3360 hn         1 6XJ       0.309500
     73 H32          0.6060    -6.7760    -1.7650 h1         1 6XJ       0.043367
     74 H33         -0.1200    -5.1720    -1.9020 h1         1 6XJ       0.043367
     75 H34          0.2690    -6.0920    -3.3570 h1         1 6XJ       0.043367
     76 H35          6.3290    -3.2960    -0.6770 hc         1 6XJ       0.052700
     77 H36          5.8080    -2.3280    -2.0490 hc         1 6XJ       0.052700
     78 H37          5.3590     0.0900    -1.7810 ha         1 6XJ       0.112000
     79 C11          2.5950    -1.2180    -0.3950 c          1 6XJ       0.593100
     80 CL           6.7260    -0.3800     3.5990 cl         1 6XJ      -0.174000
     81 C23         -2.4480     1.9960     1.0420 c          1 6XJ       0.600100
@<TRIPOS>BOND
     1     1     2 1   
     2     1    36 2   
     3     1    37 1   
     4     2     3 1   
     5     2    43 1   
     6     2    44 1   
     7     3    35 1   
     8     3    39 1   
     9     3    45 1   
    10     4     5 ar  
    11     4    42 ar  
    12     4    46 1   
    13     5     6 ar  
    14     5    41 1   
    15     6     7 ar  
    16     6    80 1   
    17     7    40 ar  
    18     7    47 1   
    19     8    33 1   
    20     8    48 1   
    21     8    49 1   
    22     8    79 1   
    23     9    10 ar  
    24     9    30 ar  
    25     9    33 1   
    26    10    11 ar  
    27    10    50 1   
    28    11    12 ar  
    29    11    51 1   
    30    12    31 ar  
    31    12    52 1   
    32    13    14 1   
    33    13    30 1   
    34    13    53 1   
    35    13    54 1   
    36    14    15 1   
    37    14    55 1   
    38    14    56 1   
    39    15    16 1   
    40    15    29 1   
    41    15    57 1   
    42    16    32 2   
    43    16    33 1   
    44    17    26 1   
    45    17    58 1   
    46    17    59 1   
    47    17    81 1   
    48    18    21 ar  
    49    18    24 ar  
    50    18    25 1   
    51    19    20 ar  
    52    19    22 1   
    53    19    23 ar  
    54    20    21 ar  
    55    20    60 1   
    56    21    61 1   
    57    23    24 ar  
    58    23    62 1   
    59    24    63 1   
    60    25    26 1   
    61    25    64 1   
    62    25    65 1   
    63    26    27 1   
    64    26    66 1   
    65    27    67 1   
    66    27    68 1   
    67    28    81 2   
    68    29    69 1   
    69    29    81 1   
    70    30    31 ar  
    71    31    70 1   
    72    34    79 2   
    73    35    71 1   
    74    35    79 1   
    75    37    38 1   
    76    37    72 1   
    77    38    73 1   
    78    38    74 1   
    79    38    75 1   
    80    39    40 1   
    81    39    76 1   
    82    39    77 1   
    83    40    42 ar  
    84    42    78 1   
@<TRIPOS>SUBSTRUCTURE
     1 6XJ         1 TEMP              0 ****  ****    0 ROOT
