@<TRIPOS>MOLECULE
6XK
   55    59     1     0     0
SMALL
bcc


@<TRIPOS>ATOM
      1 C1           5.1140     3.8320    -0.0150 c3         1 6XK      -0.183100
      2 C2           3.7650     3.1630     0.0570 c          1 6XK       0.678100
      3 C7           0.4580     0.2050     0.0720 ca         1 6XK       0.188600
      4 C8           0.8320    -1.1320     0.1770 ca         1 6XK      -0.165000
      5 C9           2.1840    -1.4450     0.2300 ca         1 6XK      -0.070000
      6 C10          3.1830    -0.4880     0.1820 ca         1 6XK      -0.131300
      7 C11          4.6200    -0.8600     0.3010 cx         1 6XK      -0.081400
      8 C12          5.1420    -2.1280    -0.2970 cx         1 6XK      -0.111400
      9 C13          5.5500    -0.8160    -0.8880 cx         1 6XK      -0.133700
     10 C14          6.9660    -0.3320    -0.7220 c3         1 6XK       0.178800
     11 C19         -4.4470     0.2070     0.0470 cc         1 6XK       0.348300
     12 C21         -3.2640    -1.8610     0.2070 cc         1 6XK       0.516500
     13 C24         -5.0820    -3.1500     0.3160 cd         1 6XK       0.459500
     14 N25         -5.5390    -1.9280     0.2140 nc         1 6XK      -0.615100
     15 C30         -6.8580     2.8060    -0.8610 cx         1 6XK      -0.126400
     16 C31         -5.4240     2.9880    -1.2450 cx         1 6XK      -0.126400
     17 O3           2.7350     3.7990     0.1910 o          1 6XK      -0.590100
     18 N4           3.8190     1.8060    -0.0090 ns         1 6XK      -0.475100
     19 C5           2.7940     0.8600     0.0660 ca         1 6XK       0.110600
     20 C6           1.4470     1.1940     0.0130 ca         1 6XK      -0.217000
     21 N15          7.8250    -0.9350    -1.7280 n8         1 6XK      -0.880800
     22 C17         -2.0430     0.0220     0.0660 cd         1 6XK       0.768200
     23 C18         -3.2130     0.8180     0.0130 cd         1 6XK      -0.469300
     24 N20         -4.4330    -1.1570     0.1480 na         1 6XK      -0.011800
     25 N22         -2.0660    -1.3000     0.1630 nc         1 6XK      -0.767000
     26 C23         -3.6710    -3.1960     0.3180 cd         1 6XK      -0.263300
     27 C26         -2.8290    -4.3130     0.4110 ch         1 6XK       0.262500
     28 N27         -2.1320    -5.2310     0.4860 n1         1 6XK      -0.400800
     29 C29         -5.7830     2.2190    -0.0080 cx         1 6XK       0.147500
     30 H1           5.4430     4.0860     0.9940 hc         1 6XK       0.063700
     31 H2           5.8850     3.2120    -0.4710 hc         1 6XK       0.063700
     32 H3           5.0350     4.7580    -0.5800 hc         1 6XK       0.063700
     33 H4           0.0960    -1.9150     0.2200 ha         1 6XK       0.180000
     34 H5           2.4660    -2.4860     0.3210 ha         1 6XK       0.138000
     35 H6           5.0780    -0.5750     1.2470 hc         1 6XK       0.079700
     36 H7           5.8780    -2.6820     0.2740 hc         1 6XK       0.075700
     37 H8           4.4590    -2.7510    -0.8610 hc         1 6XK       0.075700
     38 H9           5.0910    -0.5630    -1.8400 hc         1 6XK       0.099700
     39 H10          7.0050     0.7540    -0.8550 h1         1 6XK       0.024200
     40 H11          7.2880    -0.5250     0.3120 h1         1 6XK       0.024200
     41 H12         -5.7610    -3.9850     0.3870 h4         1 6XK       0.053800
     42 H14         -7.4550     2.1240    -1.4530 hc         1 6XK       0.084700
     43 H15         -5.0520     2.4260    -2.0920 hc         1 6XK       0.084700
     44 H16         -4.9690     3.9600    -1.1090 hc         1 6XK       0.084700
     45 H17          4.7400     1.4090    -0.1060 hn         1 6XK       0.324500
     46 H18          1.1500     2.2270    -0.0770 ha         1 6XK       0.160000
     47 H19          8.7720    -0.5960    -1.6120 hn         1 6XK       0.340300
     48 H20          7.8700    -1.9340    -1.5690 hn         1 6XK       0.340300
     49 H23         -3.1480     1.8940    -0.0540 ha         1 6XK       0.160000
     50 H25         -5.5850     2.6960     0.9470 h1         1 6XK       0.090700
     51 N16         -0.8540     0.6730     0.0170 nu         1 6XK      -0.729300
     52 N28         -5.6390     0.8020    -0.0140 nu         1 6XK      -0.732600
     53 H13         -7.4020     3.6520    -0.4630 hc         1 6XK       0.084700
     54 H22         -0.9310     1.6760    -0.0570 hn         1 6XK       0.446800
     55 H24         -6.4550     0.2270     0.1420 hn         1 6XK       0.478800
@<TRIPOS>BOND
     1     1     2 1   
     2     1    30 1   
     3     1    31 1   
     4     1    32 1   
     5     2    17 2   
     6     2    18 1   
     7     3     4 ar  
     8     3    20 ar  
     9     3    51 1   
    10     4     5 ar  
    11     4    33 1   
    12     5     6 ar  
    13     5    34 1   
    14     6     7 1   
    15     6    19 ar  
    16     7     8 1   
    17     7     9 1   
    18     7    35 1   
    19     8     9 1   
    20     8    36 1   
    21     8    37 1   
    22     9    10 1   
    23     9    38 1   
    24    10    21 1   
    25    10    39 1   
    26    10    40 1   
    27    11    23 2   
    28    11    24 1   
    29    11    52 1   
    30    12    24 1   
    31    12    25 1   
    32    12    26 2   
    33    13    14 2   
    34    13    26 1   
    35    13    41 1   
    36    14    24 1   
    37    15    16 1   
    38    15    29 1   
    39    15    42 1   
    40    15    53 1   
    41    16    29 1   
    42    16    43 1   
    43    16    44 1   
    44    18    19 1   
    45    18    45 1   
    46    19    20 ar  
    47    20    46 1   
    48    21    47 1   
    49    21    48 1   
    50    22    23 1   
    51    22    25 2   
    52    22    51 1   
    53    23    49 1   
    54    26    27 1   
    55    27    28 3   
    56    29    50 1   
    57    29    52 1   
    58    51    54 1   
    59    52    55 1   
@<TRIPOS>SUBSTRUCTURE
     1 6XK         1 TEMP              0 ****  ****    0 ROOT
