@<TRIPOS>MOLECULE
6XK
   55    59     1     0     0
SMALL
No Charge or Current Charge


@<TRIPOS>ATOM
      1 C1           5.2420     3.6640    -1.0810 c3         1 6XK      -0.183100
      2 C2           3.8530     3.0950    -0.8040 c          1 6XK       0.611100
      3 C7           0.4790     0.2560     0.2820 ca         1 6XK       0.327000
      4 C8           0.8700    -0.9810     0.8200 ca         1 6XK      -0.147000
      5 C9           2.2300    -1.2990     0.9540 ca         1 6XK      -0.052000
      6 C10          3.2200    -0.3820     0.5550 ca         1 6XK      -0.131300
      7 C11          4.6720    -0.7530     0.7170 cx         1 6XK      -0.081400
      8 C12          5.2010    -2.1160     0.3190 cx         1 6XK      -0.111400
      9 C13          5.5920    -0.8930    -0.4770 cx         1 6XK      -0.133700
     10 C14          7.0090    -0.3420    -0.4390 c3         1 6XK       0.178800
     11 C19         -4.4750     0.1700     0.0490 cc         1 6XK       0.436000
     12 C21         -3.2360    -1.8280    -0.3010 cc         1 6XK       0.516500
     13 C24         -4.9830    -3.1760    -0.5570 cd         1 6XK       0.459500
     14 N25         -5.5770    -2.0020    -0.3460 nc         1 6XK      -0.615100
     15 C30         -7.1690     2.8270    -0.2020 cx         1 6XK      -0.126400
     16 C31         -5.8060     3.1790    -0.7470 cx         1 6XK      -0.126400
     17 O3           2.8420     3.7610    -0.9920 o          1 6XK      -0.590100
     18 N4           3.8690     1.7910    -0.3290 ns         1 6XK      -0.149000
     19 C5           2.8390     0.8800     0.0400 ca         1 6XK       0.018000
     20 C6           1.4650     1.1820    -0.0900 ca         1 6XK      -0.199000
     21 N15          7.8600    -1.0410    -1.4110 n8         1 6XK      -0.991200
     22 C17         -2.0330    -0.0230     0.0460 cd         1 6XK       0.702900
     23 C18         -3.2270     0.7500     0.1630 cd         1 6XK      -0.386000
     24 N20         -4.4530    -1.2060    -0.1930 na         1 6XK       0.038900
     25 N22         -1.9810    -1.3090    -0.1990 nc         1 6XK      -0.767000
     26 C23         -3.5600    -3.1260    -0.5400 cd         1 6XK      -0.263300
     27 C26         -2.6710    -4.2020    -0.7310 ch         1 6XK       0.351700
     28 N27         -1.9600    -5.1140    -0.8920 n1         1 6XK      -0.490000
     29 C29         -5.9310     2.2240     0.4130 cx         1 6XK       0.147500
     30 H1           5.8510     3.5770    -0.1740 hc         1 6XK       0.063700
     31 H2           5.7660     3.0010    -1.7780 hc         1 6XK       0.063700
     32 H3           5.2100     4.6960    -1.4510 hc         1 6XK       0.063700
     33 H4           0.1290    -1.6980     1.1540 ha         1 6XK       0.162000
     34 H5           2.5140    -2.2610     1.3750 ha         1 6XK       0.120000
     35 H6           5.1010    -0.3200     1.6190 hc         1 6XK       0.079700
     36 H7           5.9500    -2.5720     0.9620 hc         1 6XK       0.075700
     37 H8           4.5160    -2.8180    -0.1490 hc         1 6XK       0.075700
     38 H9           5.1340    -0.7860    -1.4580 hc         1 6XK       0.099700
     39 H10          6.9980     0.7300    -0.6830 h1         1 6XK       0.024200
     40 H11          7.4390    -0.4680     0.5640 h1         1 6XK       0.024200
     41 H12         -5.6030    -4.0490    -0.7200 h4         1 6XK       0.053800
     42 H14         -7.8070     2.1890    -0.8080 hc         1 6XK       0.084700
     43 H15         -5.5250     2.7720    -1.7150 hc         1 6XK       0.084700
     44 H16         -5.4170     4.1720    -0.5390 hc         1 6XK       0.084700
     45 H17          4.7980     1.4060    -0.2260 hn         1 6XK       0.158000
     46 H18          1.1430     2.1350    -0.4910 ha         1 6XK       0.142000
     47 H19          8.8270    -0.7100    -1.3070 hn         1 6XK       0.395500
     48 H20          7.9130    -2.0320    -1.1470 hn         1 6XK       0.395500
     49 H23         -3.1580     1.8120     0.3500 ha         1 6XK       0.142000
     50 H25         -5.6230     2.5810     1.4000 h1         1 6XK       0.090700
     51 N16         -0.8600     0.6340     0.1420 nu         1 6XK      -0.922900
     52 N28         -5.6730     0.8370     0.1520 nu         1 6XK      -0.926200
     53 H13         -7.6970     3.5840     0.3730 hc         1 6XK       0.084700
     54 H22         -0.9990     1.6330     0.0380 hn         1 6XK       0.502000
     55 H24         -6.4540     0.1820     0.0400 hn         1 6XK       0.534000
@<TRIPOS>BOND
     1     1     2 1   
     2     1    30 1   
     3     1    31 1   
     4     1    32 1   
     5     2    17 2   
     6     2    18 1   
     7     3     4 ar  
     8     3    20 ar  
     9     3    51 1   
    10     4     5 ar  
    11     4    33 1   
    12     5     6 ar  
    13     5    34 1   
    14     6     7 1   
    15     6    19 ar  
    16     7     8 1   
    17     7     9 1   
    18     7    35 1   
    19     8     9 1   
    20     8    36 1   
    21     8    37 1   
    22     9    10 1   
    23     9    38 1   
    24    10    21 1   
    25    10    39 1   
    26    10    40 1   
    27    11    23 2   
    28    11    24 1   
    29    11    52 1   
    30    12    24 1   
    31    12    25 1   
    32    12    26 2   
    33    13    14 2   
    34    13    26 1   
    35    13    41 1   
    36    14    24 1   
    37    15    16 1   
    38    15    29 1   
    39    15    42 1   
    40    15    53 1   
    41    16    29 1   
    42    16    43 1   
    43    16    44 1   
    44    18    19 1   
    45    18    45 1   
    46    19    20 ar  
    47    20    46 1   
    48    21    47 1   
    49    21    48 1   
    50    22    23 1   
    51    22    25 2   
    52    22    51 1   
    53    23    49 1   
    54    26    27 1   
    55    27    28 3   
    56    29    50 1   
    57    29    52 1   
    58    51    54 1   
    59    52    55 1   
@<TRIPOS>SUBSTRUCTURE
     1 6XK         1 TEMP              0 ****  ****    0 ROOT
