@<TRIPOS>MOLECULE
6XL
   65    69     1     0     0
SMALL
No Charge or Current Charge


@<TRIPOS>ATOM
      1 C4         -42.6170    27.3050     1.0810 c3         1 6XL      -0.084100
      2 C14        -41.4300    28.6460    -2.8730 ca         1 6XL       0.234000
      3 C5         -41.9860    26.7810    -1.3780 ca         1 6XL      -0.006300
      4 C6         -41.7600    25.9010    -2.4620 ca         1 6XL      -0.123000
      5 C11        -40.7980    28.2050    -5.3120 c          1 6XL       0.580600
      6 C7         -41.3760    26.3760    -3.7310 ca         1 6XL      -0.099900
      7 C8         -41.1510    25.4250    -4.8250 cc         1 6XL       0.357800
      8 C13        -41.2080    27.7550    -3.9420 ca         1 6XL      -0.182600
      9 C3         -43.7450    25.4310    -0.1540 c3         1 6XL      -0.084100
     10 C1         -41.3080    25.2380     0.5120 c3         1 6XL      -0.084100
     11 C2         -42.4090    26.2060     0.0010 c3         1 6XL      -0.010700
     12 N9         -40.7740    25.7760    -6.0570 nd         1 6XL      -0.394300
     13 N10        -40.6070    27.1650    -6.2510 n          1 6XL      -0.180300
     14 O12        -40.6440    29.3830    -5.6120 o          1 6XL      -0.493000
     15 C15        -41.8130    28.1650    -1.6110 ca         1 6XL      -0.164000
     16 C17        -40.2000    27.4960    -7.5830 ca         1 6XL       0.494900
     17 C18        -38.8330    27.5460    -7.9570 ca         1 6XL      -0.104300
     18 C19        -38.5190    27.8730    -9.3080 ca         1 6XL       0.036200
     19 C20        -39.6000    28.0730   -10.1890 ca         1 6XL      -0.156000
     20 C21        -40.9160    27.9940    -9.7220 ca         1 6XL       0.355900
     21 N22        -41.2220    27.7170    -8.4420 nb         1 6XL      -0.653000
     22 C23        -37.1500    27.9970    -9.8440 cc         1 6XL      -0.122200
     23 C24        -36.7940    27.6410   -11.1910 cc         1 6XL      -0.133000
     24 C25        -35.5290    27.8990   -11.6810 cd         1 6XL       0.028800
     25 C26        -34.4950    28.5690   -10.8080 c          1 6XL       0.528200
     26 O27        -33.3450    28.7770   -11.1930 o          1 6XL      -0.585000
     27 N28        -34.9360    28.9550    -9.5210 n          1 6XL      -0.254000
     28 C29        -36.2370    28.7060    -9.0840 cd         1 6XL      -0.042400
     29 C30        -33.9770    29.6570    -8.6370 c3         1 6XL       0.078300
     30 N31        -35.1330    27.5340   -12.9710 nu         1 6XL      -0.783900
     31 C32        -35.7890    27.2000   -14.1560 ca         1 6XL       0.383900
     32 C33        -35.0490    26.7010   -15.2360 ca         1 6XL      -0.276000
     33 C34        -35.7410    26.4060   -16.4220 ca         1 6XL       0.131900
     34 N35        -37.0700    26.6030   -16.5270 nb         1 6XL      -0.207000
     35 C36        -37.6900    27.0980   -15.4360 ca         1 6XL       0.154900
     36 N37        -37.1140    27.4110   -14.2570 nb         1 6XL      -0.259000
     37 C38        -37.7710    27.1190    -6.9390 c3         1 6XL       0.206900
     38 O39        -37.4820    28.1830    -6.0250 oh         1 6XL      -0.663000
     39 H1         -42.9140    26.8610     2.0390 hc         1 6XL       0.039700
     40 H2         -41.6930    27.8700     1.2540 hc         1 6XL       0.039700
     41 H3         -43.4070    28.0060     0.7860 hc         1 6XL       0.039700
     42 H4         -41.8830    24.8300    -2.3230 ha         1 6XL       0.124000
     43 H5         -41.2660    24.3540    -4.7330 h4         1 6XL       0.045800
     44 H6         -44.0880    25.0420     0.8130 hc         1 6XL       0.039700
     45 H7         -44.5290    26.0880    -0.5510 hc         1 6XL       0.039700
     46 H8         -43.6440    24.5780    -0.8350 hc         1 6XL       0.039700
     47 H9         -41.5620    24.8420     1.5030 hc         1 6XL       0.039700
     48 H10        -41.1760    24.3820    -0.1600 hc         1 6XL       0.039700
     49 H11        -40.3440    25.7560     0.5920 hc         1 6XL       0.039700
     50 H12        -41.9690    28.8980    -0.8270 ha         1 6XL       0.139000
     51 H13        -39.4350    28.3290   -11.2310 ha         1 6XL       0.135000
     52 H14        -41.7550    28.1660   -10.3950 h4         1 6XL       0.028100
     53 H15        -37.5310    27.1240   -11.7940 ha         1 6XL       0.229000
     54 H16        -36.4570    29.1390    -8.1130 h4         1 6XL       0.233000
     55 H17        -34.4230    29.8560    -7.6550 h1         1 6XL       0.059700
     56 H18        -33.0820    29.0390    -8.4970 h1         1 6XL       0.059700
     57 H19        -33.6860    30.6120    -9.0940 h1         1 6XL       0.059700
     58 H20        -34.1190    27.6060   -13.0970 hn         1 6XL       0.527000
     59 H21        -33.9780    26.5400   -15.1660 ha         1 6XL       0.135000
     60 H22        -35.2280    26.0110   -17.2980 h4         1 6XL       0.024100
     61 H23        -38.7630    27.2630   -15.5160 h5         1 6XL       0.047100
     62 H24        -38.1280    26.2390    -6.3890 h1         1 6XL       0.038700
     63 H25        -36.8590    26.7950    -7.4560 h1         1 6XL       0.038700
     64 H26        -36.8430    27.8300    -5.3680 ho         1 6XL       0.441000
     65 F16        -41.2810    29.9800    -3.0270 f          1 6XL      -0.151000
@<TRIPOS>BOND
     1     1    11 1   
     2     1    39 1   
     3     1    40 1   
     4     1    41 1   
     5     2     8 ar  
     6     2    15 ar  
     7     2    65 1   
     8     3     4 ar  
     9     3    11 1   
    10     3    15 ar  
    11     4     6 ar  
    12     4    42 1   
    13     5     8 1   
    14     5    13 1   
    15     5    14 2   
    16     6     7 1   
    17     6     8 ar  
    18     7    12 2   
    19     7    43 1   
    20     9    11 1   
    21     9    44 1   
    22     9    45 1   
    23     9    46 1   
    24    10    11 1   
    25    10    47 1   
    26    10    48 1   
    27    10    49 1   
    28    12    13 1   
    29    13    16 1   
    30    15    50 1   
    31    16    17 ar  
    32    16    21 ar  
    33    17    18 ar  
    34    17    37 1   
    35    18    19 ar  
    36    18    22 1   
    37    19    20 ar  
    38    19    51 1   
    39    20    21 ar  
    40    20    52 1   
    41    22    23 1   
    42    22    28 2   
    43    23    24 2   
    44    23    53 1   
    45    24    25 1   
    46    24    30 1   
    47    25    26 2   
    48    25    27 1   
    49    27    28 1   
    50    27    29 1   
    51    28    54 1   
    52    29    55 1   
    53    29    56 1   
    54    29    57 1   
    55    30    31 1   
    56    30    58 1   
    57    31    32 ar  
    58    31    36 ar  
    59    32    33 ar  
    60    32    59 1   
    61    33    34 ar  
    62    33    60 1   
    63    34    35 ar  
    64    35    36 ar  
    65    35    61 1   
    66    37    38 1   
    67    37    62 1   
    68    37    63 1   
    69    38    64 1   
@<TRIPOS>SUBSTRUCTURE
     1 6XL         1 TEMP              0 ****  ****    0 ROOT
