@<TRIPOS>MOLECULE
6XL
   65    69     1     0     0
SMALL
abcg2


@<TRIPOS>ATOM
      1 C4         -42.5570    27.0630     0.9400 c3         1 6XL      -0.084100
      2 C14        -41.3830    28.5870    -2.8410 ca         1 6XL       0.234000
      3 C5         -41.9430    26.6580    -1.4950 ca         1 6XL      -0.006300
      4 C6         -41.7300    25.8630    -2.6160 ca         1 6XL      -0.123000
      5 C11        -40.7880    28.3570    -5.2850 c          1 6XL       0.580600
      6 C7         -41.3510    26.4190    -3.8370 ca         1 6XL      -0.099900
      7 C8         -41.1340    25.5960    -4.9940 cc         1 6XL       0.357800
      8 C13        -41.1700    27.8110    -3.9830 ca         1 6XL      -0.182600
      9 C3         -43.7010    25.2800    -0.3770 c3         1 6XL      -0.084100
     10 C1         -41.2850    25.0210     0.2770 c3         1 6XL      -0.084100
     11 C2         -42.3670    26.0230    -0.1700 c3         1 6XL      -0.010700
     12 N9         -40.7790    26.0500    -6.1460 nd         1 6XL      -0.394300
     13 N10        -40.5990    27.3930    -6.2690 n          1 6XL      -0.180300
     14 O12        -40.6330    29.5440    -5.5510 o          1 6XL      -0.493000
     15 C15        -41.7560    28.0400    -1.6320 ca         1 6XL      -0.164000
     16 C17        -40.2210    27.8170    -7.5940 ca         1 6XL       0.494900
     17 C18        -38.8700    27.8380    -7.9460 ca         1 6XL      -0.104300
     18 C19        -38.5620    28.2500    -9.2580 ca         1 6XL       0.036200
     19 C20        -39.6280    28.5690   -10.1050 ca         1 6XL      -0.156000
     20 C21        -40.9270    28.4970    -9.6390 ca         1 6XL       0.355900
     21 N22        -41.2300    28.1280    -8.3910 nb         1 6XL      -0.653000
     22 C23        -37.1860    28.3380    -9.7860 cc         1 6XL      -0.122200
     23 C24        -36.9040    27.8760   -11.0990 cc         1 6XL      -0.133000
     24 C25        -35.6420    27.9820   -11.6150 cd         1 6XL       0.028800
     25 C26        -34.5690    28.5810   -10.8340 c          1 6XL       0.528200
     26 O27        -33.4100    28.6970   -11.2600 o          1 6XL      -0.585000
     27 N28        -34.9160    29.0190    -9.5720 n          1 6XL      -0.254000
     28 C29        -36.1730    28.9020    -9.0620 cd         1 6XL      -0.042400
     29 C30        -33.8570    29.6320    -8.7670 c3         1 6XL       0.078300
     30 N31        -35.1960    27.5630   -12.8600 nu         1 6XL      -0.783900
     31 C32        -35.8560    26.9760   -13.8960 ca         1 6XL       0.383900
     32 C33        -35.1410    26.6370   -15.0620 ca         1 6XL      -0.276000
     33 C34        -35.8480    26.0470   -16.0780 ca         1 6XL       0.131900
     34 N35        -37.1710    25.7900   -15.9970 nb         1 6XL      -0.207000
     35 C36        -37.7470    26.1490   -14.8580 ca         1 6XL       0.154900
     36 N37        -37.1690    26.7260   -13.8040 nb         1 6XL      -0.259000
     37 C38        -37.8240    27.3960    -6.9620 c3         1 6XL       0.206900
     38 O39        -37.3960    28.5320    -6.1940 oh         1 6XL      -0.663000
     39 H1         -42.8620    26.5560     1.8560 hc         1 6XL       0.039700
     40 H2         -41.6320    27.6040     1.1480 hc         1 6XL       0.039700
     41 H3         -43.3320    27.7880     0.6840 hc         1 6XL       0.039700
     42 H4         -41.8590    24.7900    -2.5620 ha         1 6XL       0.124000
     43 H5         -41.2670    24.5230    -4.9250 h4         1 6XL       0.045800
     44 H6         -44.0150    24.8220     0.5630 hc         1 6XL       0.039700
     45 H7         -44.4820    25.9720    -0.6980 hc         1 6XL       0.039700
     46 H8         -43.6120    24.4920    -1.1250 hc         1 6XL       0.039700
     47 H9         -41.5800    24.5620     1.2230 hc         1 6XL       0.039700
     48 H10        -41.1430    24.2260    -0.4560 hc         1 6XL       0.039700
     49 H11        -40.3280    25.5260     0.4250 hc         1 6XL       0.039700
     50 H12        -41.8980    28.7150    -0.8020 ha         1 6XL       0.139000
     51 H13        -39.4420    28.8910   -11.1200 ha         1 6XL       0.135000
     52 H14        -41.7600    28.7480   -10.2860 h4         1 6XL       0.028100
     53 H15        -37.6800    27.4200   -11.6900 ha         1 6XL       0.229000
     54 H16        -36.3160    29.2910    -8.0660 h4         1 6XL       0.233000
     55 H17        -34.2750    29.9170    -7.8070 h1         1 6XL       0.059700
     56 H18        -33.0460    28.9210    -8.6230 h1         1 6XL       0.059700
     57 H19        -33.4670    30.5110    -9.2780 h1         1 6XL       0.059700
     58 H20        -34.2070    27.7410   -12.9910 hn         1 6XL       0.527000
     59 H21        -34.0800    26.8330   -15.1480 ha         1 6XL       0.135000
     60 H22        -35.3530    25.7620   -17.0000 h4         1 6XL       0.024100
     61 H23        -38.8110    25.9550   -14.7650 h5         1 6XL       0.047100
     62 H24        -38.2310    26.6330    -6.2990 h1         1 6XL       0.038700
     63 H25        -36.9790    26.9610    -7.5010 h1         1 6XL       0.038700
     64 H26        -36.7640    28.2230    -5.5320 ho         1 6XL       0.441000
     65 F16        -41.2230    29.9230    -2.8870 f          1 6XL      -0.151000
@<TRIPOS>BOND
     1     1    11 1   
     2     1    39 1   
     3     1    40 1   
     4     1    41 1   
     5     2     8 ar  
     6     2    15 ar  
     7     2    65 1   
     8     3     4 ar  
     9     3    11 1   
    10     3    15 ar  
    11     4     6 ar  
    12     4    42 1   
    13     5     8 1   
    14     5    13 1   
    15     5    14 2   
    16     6     7 1   
    17     6     8 ar  
    18     7    12 2   
    19     7    43 1   
    20     9    11 1   
    21     9    44 1   
    22     9    45 1   
    23     9    46 1   
    24    10    11 1   
    25    10    47 1   
    26    10    48 1   
    27    10    49 1   
    28    12    13 1   
    29    13    16 1   
    30    15    50 1   
    31    16    17 ar  
    32    16    21 ar  
    33    17    18 ar  
    34    17    37 1   
    35    18    19 ar  
    36    18    22 1   
    37    19    20 ar  
    38    19    51 1   
    39    20    21 ar  
    40    20    52 1   
    41    22    23 1   
    42    22    28 2   
    43    23    24 2   
    44    23    53 1   
    45    24    25 1   
    46    24    30 1   
    47    25    26 2   
    48    25    27 1   
    49    27    28 1   
    50    27    29 1   
    51    28    54 1   
    52    29    55 1   
    53    29    56 1   
    54    29    57 1   
    55    30    31 1   
    56    30    58 1   
    57    31    32 ar  
    58    31    36 ar  
    59    32    33 ar  
    60    32    59 1   
    61    33    34 ar  
    62    33    60 1   
    63    34    35 ar  
    64    35    36 ar  
    65    35    61 1   
    66    37    38 1   
    67    37    62 1   
    68    37    63 1   
    69    38    64 1   
@<TRIPOS>SUBSTRUCTURE
     1 6XL         1 TEMP              0 ****  ****    0 ROOT
