@<TRIPOS>MOLECULE
6XM
   72    79     1     0     0
SMALL
bcc


@<TRIPOS>ATOM
      1 C1          -2.4080     3.9560     0.5090 ca         1 6XM      -0.178500
      2 C2          -3.4830     3.2290     0.9960 ca         1 6XM      -0.072000
      3 CA          -3.5150    -1.0110     0.7100 c3         1 6XM       0.223300
      4 CB          -4.4170    -0.9270    -0.5220 c3         1 6XM       0.139800
      5 CC1         -6.2740    -2.0400    -1.5710 c6         1 6XM       0.125800
      6 CD1         -7.5150    -2.8690    -1.3000 c6         1 6XM       0.129900
      7 O1          -8.4370    -2.1710    -0.4910 os         1 6XM      -0.402100
      8 CD2         -7.8430    -1.7820     0.7270 c6         1 6XM       0.129900
      9 CC2         -6.6060    -0.9320     0.5010 c6         1 6XM       0.125800
     10 N2          -5.6490    -1.6580    -0.3170 n3         1 6XM      -0.720100
     11 N1          -2.2950    -0.2460     0.5270 nh         1 6XM      -0.555400
     12 C6          -2.3760     1.1430     0.5120 ca         1 6XM       0.213600
     13 C7          -1.3100     1.8670    -0.0230 ca         1 6XM      -0.188300
     14 C3          -3.4780     1.8420     1.0140 ca         1 6XM      -0.211000
     15 C8          -1.3260     3.2490     0.0030 ca         1 6XM       0.165100
     16 O           -0.2790     3.9670    -0.4970 os         1 6XM      -0.234200
     17 C23          0.9410     3.3660    -0.5930 ca         1 6XM       0.165100
     18 C12          2.0560     4.1890    -0.6760 ca         1 6XM      -0.178500
     19 C13          3.2970     3.5840    -0.7810 ca         1 6XM      -0.072000
     20 C22          3.4410     2.2040    -0.7580 ca         1 6XM      -0.211000
     21 C20          2.3120     1.3850    -0.6580 ca         1 6XM       0.213600
     22 C21          1.0510     1.9870    -0.6240 ca         1 6XM      -0.188300
     23 C11         -0.1830     1.1460    -0.6900 c6         1 6XM       0.117200
     24 C10          0.0480    -0.1750    -0.0280 ca         1 6XM      -0.169300
     25 C9          -1.0400    -0.8650     0.5120 ca         1 6XM       0.216600
     26 C4          -0.8390    -2.1480     1.0280 ca         1 6XM      -0.214500
     27 C5           0.4230    -2.7130     0.9650 ca         1 6XM      -0.068000
     28 C25          1.5080    -2.0330     0.4380 ca         1 6XM      -0.214500
     29 C24          1.3280    -0.7370    -0.0540 ca         1 6XM       0.216600
     30 N4           2.3890    -0.0020    -0.5910 nh         1 6XM      -0.555400
     31 C14          3.6610    -0.6590    -0.8230 c3         1 6XM       0.223300
     32 C15          4.5580    -0.7290     0.4160 c3         1 6XM       0.139800
     33 N3           5.7150    -1.5690     0.1930 n3         1 6XM      -0.720100
     34 C19          6.3750    -1.8990     1.4440 c6         1 6XM       0.125800
     35 C18          7.5580    -2.8130     1.1910 c6         1 6XM       0.129900
     36 O2           8.4800    -2.2310     0.2970 os         1 6XM      -0.402100
     37 C17          7.8540    -1.9080    -0.9240 c6         1 6XM       0.129900
     38 C16          6.6750    -0.9750    -0.7230 c6         1 6XM       0.125800
     39 H1          -2.4090     5.0380     0.5110 ha         1 6XM       0.151000
     40 H2          -4.3440     3.7540     1.3880 ha         1 6XM       0.133000
     41 HA1         -4.0300    -0.6920     1.6200 h1         1 6XM       0.061200
     42 HA2         -3.2720    -2.0570     0.8620 h1         1 6XM       0.061200
     43 HB2         -4.6020     0.1210    -0.8060 h1         1 6XM       0.045450
     44 HB1         -3.8770    -1.3830    -1.3550 h1         1 6XM       0.045450
     45 HC1         -6.5450    -1.1610    -2.1810 h1         1 6XM       0.041700
     46 HD2         -8.0190    -3.1100    -2.2370 h1         1 6XM       0.051700
     47 HD1         -7.2200    -3.8120    -0.8200 h1         1 6XM       0.051700
     48 HD3         -8.5880    -1.2180     1.2900 h1         1 6XM       0.051700
     49 HD4         -7.5680    -2.6650     1.3200 h1         1 6XM       0.051700
     50 HC3         -6.8890     0.0270     0.0350 h1         1 6XM       0.041700
     51 HC4         -6.1720    -0.6980     1.4760 h1         1 6XM       0.041700
     52 H3          -4.3370     1.3270     1.4190 ha         1 6XM       0.135000
     53 H6           1.9500     5.2650    -0.6630 ha         1 6XM       0.151000
     54 H8           4.1820     4.2010    -0.8580 ha         1 6XM       0.133000
     55 H20          4.4380     1.7910    -0.8090 ha         1 6XM       0.135000
     56 H7          -0.4430     0.9740    -1.7470 hc         1 6XM       0.075700
     57 H4          -1.6370    -2.7110     1.4880 ha         1 6XM       0.140500
     58 H5           0.5730    -3.7090     1.3590 ha         1 6XM       0.130000
     59 H21          2.4700    -2.5220     0.4300 ha         1 6XM       0.140500
     60 H10          3.4710    -1.6690    -1.1880 h1         1 6XM       0.061200
     61 H9           4.1590    -0.1420    -1.6430 h1         1 6XM       0.061200
     62 H12          4.8430     0.2850     0.7400 h1         1 6XM       0.045450
     63 H11          3.9850    -1.1590     1.2410 h1         1 6XM       0.045450
     64 H18          6.7170    -0.9960     1.9780 h1         1 6XM       0.041700
     65 H19          5.6680    -2.4130     2.1000 h1         1 6XM       0.041700
     66 H16          8.0860    -3.0090     2.1260 h1         1 6XM       0.051700
     67 H17          7.1990    -3.7750     0.7990 h1         1 6XM       0.051700
     68 H14          8.6020    -1.4300    -1.5590 h1         1 6XM       0.051700
     69 H15          7.5110    -2.8200    -1.4340 h1         1 6XM       0.051700
     70 HC2          6.2140    -0.8020    -1.6980 h1         1 6XM       0.041700
     71 H13          7.0320     0.0040    -0.3560 h1         1 6XM       0.041700
     72 H22         -5.5720    -2.6360    -2.1580 h1         1 6XM       0.041700
@<TRIPOS>BOND
     1     1     2 ar  
     2     1    15 ar  
     3     1    39 1   
     4     2    14 ar  
     5     2    40 1   
     6     3     4 1   
     7     3    11 1   
     8     3    41 1   
     9     3    42 1   
    10     4    10 1   
    11     4    43 1   
    12     4    44 1   
    13     5     6 1   
    14     5    10 1   
    15     5    45 1   
    16     5    72 1   
    17     6     7 1   
    18     6    46 1   
    19     6    47 1   
    20     7     8 1   
    21     8     9 1   
    22     8    48 1   
    23     8    49 1   
    24     9    10 1   
    25     9    50 1   
    26     9    51 1   
    27    11    12 1   
    28    11    25 1   
    29    12    13 ar  
    30    12    14 ar  
    31    13    15 ar  
    32    13    23 1   
    33    14    52 1   
    34    15    16 1   
    35    16    17 1   
    36    17    18 ar  
    37    17    22 ar  
    38    18    19 ar  
    39    18    53 1   
    40    19    20 ar  
    41    19    54 1   
    42    20    21 ar  
    43    20    55 1   
    44    21    22 ar  
    45    21    30 1   
    46    22    23 1   
    47    23    24 1   
    48    23    56 1   
    49    24    25 ar  
    50    24    29 ar  
    51    25    26 ar  
    52    26    27 ar  
    53    26    57 1   
    54    27    28 ar  
    55    27    58 1   
    56    28    29 ar  
    57    28    59 1   
    58    29    30 1   
    59    30    31 1   
    60    31    32 1   
    61    31    60 1   
    62    31    61 1   
    63    32    33 1   
    64    32    62 1   
    65    32    63 1   
    66    33    34 1   
    67    33    38 1   
    68    34    35 1   
    69    34    64 1   
    70    34    65 1   
    71    35    36 1   
    72    35    66 1   
    73    35    67 1   
    74    36    37 1   
    75    37    38 1   
    76    37    68 1   
    77    37    69 1   
    78    38    70 1   
    79    38    71 1   
@<TRIPOS>SUBSTRUCTURE
     1 6XM         1 TEMP              0 ****  ****    0 ROOT
