@<TRIPOS>MOLECULE
6XM
   72    79     1     0     0
SMALL
No Charge or Current Charge


@<TRIPOS>ATOM
      1 C1          -2.5400     4.0780     0.2860 ca         1 6XM      -0.160500
      2 C2          -3.6110     3.4450     0.9390 ca         1 6XM      -0.054000
      3 CA          -3.6300    -0.9390     0.9040 c3         1 6XM       0.223300
      4 CB          -4.4920    -0.7380    -0.3800 c3         1 6XM       0.139800
      5 CC1         -6.3090    -1.5410    -1.8640 c6         1 6XM       0.125800
      6 CD1         -7.5180    -2.5130    -2.0090 c6         1 6XM       0.153100
      7 O1          -8.4710    -2.2900    -0.9420 os         1 6XM      -0.448500
      8 CD2         -7.8880    -2.4680     0.3710 c6         1 6XM       0.153100
      9 CC2         -6.6830    -1.4990     0.5670 c6         1 6XM       0.125800
     10 N2          -5.6610    -1.6520    -0.5190 n3         1 6XM      -0.720100
     11 N1          -2.3910    -0.1060     0.9720 nh         1 6XM      -0.832200
     12 C6          -2.4710     1.2900     0.7360 ca         1 6XM       0.352000
     13 C7          -1.4110     1.9350     0.0810 ca         1 6XM      -0.188300
     14 C3          -3.5710     2.0580     1.1710 ca         1 6XM      -0.193000
     15 C8          -1.4370     3.3220    -0.1350 ca         1 6XM       0.165100
     16 O           -0.3650     3.9490    -0.7330 os         1 6XM      -0.234200
     17 C23          0.8750     3.3480    -0.7830 ca         1 6XM       0.165100
     18 C12          2.0120     4.1330    -1.0130 ca         1 6XM      -0.160500
     19 C13          3.2810     3.5340    -1.0150 ca         1 6XM      -0.054000
     20 C22          3.4080     2.1570    -0.7630 ca         1 6XM      -0.193000
     21 C20          2.2700     1.3530    -0.5220 ca         1 6XM       0.352000
     22 C21          1.0040     1.9650    -0.5670 ca         1 6XM      -0.188300
     23 C11         -0.2470     1.1220    -0.4430 c6         1 6XM       0.117200
     24 C10         -0.0160    -0.1270     0.3810 ca         1 6XM      -0.169300
     25 C9          -1.1130    -0.7290     1.0260 ca         1 6XM       0.355000
     26 C4          -0.9090    -1.9190     1.7480 ca         1 6XM      -0.196500
     27 C5           0.3600    -2.5110     1.7960 ca         1 6XM      -0.050000
     28 C25          1.4400    -1.9050     1.1400 ca         1 6XM      -0.196500
     29 C24          1.2700    -0.6970     0.4310 ca         1 6XM       0.355000
     30 N4           2.3660    -0.0320    -0.1990 nh         1 6XM      -0.832200
     31 C14          3.5920    -0.8000    -0.5720 c3         1 6XM       0.223300
     32 C15          4.7160    -0.8330     0.5100 c3         1 6XM       0.139800
     33 N3           5.8950    -1.6840     0.1860 n3         1 6XM      -0.720100
     34 C19          6.8240    -1.8330     1.3510 c6         1 6XM       0.125800
     35 C18          8.0430    -2.7410     1.0100 c6         1 6XM       0.153100
     36 O2           8.7340    -2.2350    -0.1560 os         1 6XM      -0.448500
     37 C17          7.8770    -2.1550    -1.3200 c6         1 6XM       0.153100
     38 C16          6.6500    -1.2380    -1.0300 c6         1 6XM       0.125800
     39 H1          -2.5590     5.1520     0.1190 ha         1 6XM       0.133000
     40 H2          -4.4650     4.0290     1.2780 ha         1 6XM       0.115000
     41 HA1         -4.2440    -0.7500     1.7930 h1         1 6XM       0.061200
     42 HA2         -3.3730    -2.0060     0.9270 h1         1 6XM       0.061200
     43 HB2         -4.8370     0.3030    -0.4170 h1         1 6XM       0.045450
     44 HB1         -3.8230    -0.8790    -1.2400 h1         1 6XM       0.045450
     45 HC1         -6.6630    -0.5140    -2.0340 h1         1 6XM       0.041700
     46 HD2         -8.0150    -2.3520    -2.9760 h1         1 6XM       0.051700
     47 HD1         -7.1690    -3.5550    -1.9720 h1         1 6XM       0.051700
     48 HD3         -8.6540    -2.2730     1.1350 h1         1 6XM       0.051700
     49 HD4         -7.5520    -3.5100     0.4810 h1         1 6XM       0.051700
     50 HC3         -7.0630    -0.4660     0.5910 h1         1 6XM       0.041700
     51 HC4         -6.2390    -1.7020     1.5520 h1         1 6XM       0.041700
     52 H3          -4.3940     1.5870     1.6990 ha         1 6XM       0.117000
     53 H6           1.9100     5.2020    -1.1820 ha         1 6XM       0.133000
     54 H8           4.1670     4.1400    -1.1920 ha         1 6XM       0.115000
     55 H20          4.4050     1.7320    -0.7460 ha         1 6XM       0.117000
     56 H7          -0.5140     0.7910    -1.4570 hc         1 6XM       0.075700
     57 H4          -1.7270    -2.3840     2.2900 ha         1 6XM       0.122500
     58 H5           0.5090    -3.4330     2.3540 ha         1 6XM       0.112000
     59 H21          2.4110    -2.3820     1.2090 ha         1 6XM       0.122500
     60 H10          3.3170    -1.8350    -0.8180 h1         1 6XM       0.061200
     61 H9           4.0030    -0.3920    -1.5050 h1         1 6XM       0.061200
     62 H12          5.0470     0.1940     0.7070 h1         1 6XM       0.045450
     63 H11          4.2660    -1.1900     1.4460 h1         1 6XM       0.045450
     64 H18          7.1980    -0.8490     1.6690 h1         1 6XM       0.041700
     65 H19          6.2910    -2.2680     2.2100 h1         1 6XM       0.041700
     66 H16          8.7400    -2.7670     1.8600 h1         1 6XM       0.051700
     67 H17          7.7030    -3.7690     0.8140 h1         1 6XM       0.051700
     68 H14          8.4530    -1.7540    -2.1660 h1         1 6XM       0.051700
     69 H15          7.5340    -3.1650    -1.5880 h1         1 6XM       0.051700
     70 HC2          6.0010    -1.2470    -1.9170 h1         1 6XM       0.041700
     71 H13          7.0070    -0.2050    -0.9010 h1         1 6XM       0.041700
     72 H22         -5.5810    -1.7650    -2.6580 h1         1 6XM       0.041700
@<TRIPOS>BOND
     1     1     2 ar  
     2     1    15 ar  
     3     1    39 1   
     4     2    14 ar  
     5     2    40 1   
     6     3     4 1   
     7     3    11 1   
     8     3    41 1   
     9     3    42 1   
    10     4    10 1   
    11     4    43 1   
    12     4    44 1   
    13     5     6 1   
    14     5    10 1   
    15     5    45 1   
    16     5    72 1   
    17     6     7 1   
    18     6    46 1   
    19     6    47 1   
    20     7     8 1   
    21     8     9 1   
    22     8    48 1   
    23     8    49 1   
    24     9    10 1   
    25     9    50 1   
    26     9    51 1   
    27    11    12 1   
    28    11    25 1   
    29    12    13 ar  
    30    12    14 ar  
    31    13    15 ar  
    32    13    23 1   
    33    14    52 1   
    34    15    16 1   
    35    16    17 1   
    36    17    18 ar  
    37    17    22 ar  
    38    18    19 ar  
    39    18    53 1   
    40    19    20 ar  
    41    19    54 1   
    42    20    21 ar  
    43    20    55 1   
    44    21    22 ar  
    45    21    30 1   
    46    22    23 1   
    47    23    24 1   
    48    23    56 1   
    49    24    25 ar  
    50    24    29 ar  
    51    25    26 ar  
    52    26    27 ar  
    53    26    57 1   
    54    27    28 ar  
    55    27    58 1   
    56    28    29 ar  
    57    28    59 1   
    58    29    30 1   
    59    30    31 1   
    60    31    32 1   
    61    31    60 1   
    62    31    61 1   
    63    32    33 1   
    64    32    62 1   
    65    32    63 1   
    66    33    34 1   
    67    33    38 1   
    68    34    35 1   
    69    34    64 1   
    70    34    65 1   
    71    35    36 1   
    72    35    66 1   
    73    35    67 1   
    74    36    37 1   
    75    37    38 1   
    76    37    68 1   
    77    37    69 1   
    78    38    70 1   
    79    38    71 1   
@<TRIPOS>SUBSTRUCTURE
     1 6XM         1 TEMP              0 ****  ****    0 ROOT
