@<TRIPOS>MOLECULE
6XN
   57    60     1     0     0
SMALL
bcc


@<TRIPOS>ATOM
      1 FAC          5.4930    -1.9120    -2.8820 f          1 6XN      -0.229633
      2 CBI          5.2460    -3.0250    -2.1880 c3         1 6XN       0.854700
      3 FAD          4.0300    -3.4400    -2.5480 f          1 6XN      -0.229633
      4 FAE          6.1250    -3.9460    -2.5490 f          1 6XN      -0.229633
      5 OAX          5.3620    -2.8470    -0.8660 os         1 6XN      -0.380900
      6 CBB          4.5400    -1.8970    -0.2680 ca         1 6XN       0.099100
      7 CAN          4.9990    -0.5970    -0.1350 ca         1 6XN      -0.120000
      8 CAL          4.2010     0.3330     0.5100 ca         1 6XN      -0.101000
      9 CAM          3.3130    -2.2860     0.2360 ca         1 6XN      -0.120000
     10 CAK          2.5230    -1.3400     0.8770 ca         1 6XN      -0.101000
     11 CBA          2.9540    -0.0260     1.0140 ca         1 6XN      -0.111300
     12 CAT          2.0900     1.0000     1.7000 c3         1 6XN       0.098600
     13 NBH          1.6420     2.0460     0.8010 na         1 6XN      -0.258000
     14 CBF          2.1910     3.2980     0.7030 ca         1 6XN       0.402800
     15 NAU          3.1820     3.7970     1.4100 nb         1 6XN      -0.675000
     16 CAH          3.5040     5.0490     1.0970 ca         1 6XN       0.418200
     17 CAG          2.8650     5.7960     0.1040 ca         1 6XN      -0.272300
     18 CAQ          1.8260     5.2440    -0.6320 ca         1 6XN      -0.031000
     19 CBE          1.4740     3.9380    -0.3200 ca         1 6XN      -0.029900
     20 NAV          0.5250     3.0880    -0.8270 nc         1 6XN      -0.568100
     21 CBD          0.6550     1.9810    -0.1460 cd         1 6XN       0.433800
     22 CAS         -0.1920     0.7740    -0.3360 c3         1 6XN      -0.090700
     23 CAR         -1.3020     0.6720     0.7130 c3         1 6XN      -0.160400
     24 CAY         -2.0170    -0.6620     0.6280 c          1 6XN       0.668100
     25 OAB         -1.3990    -1.7080     0.4850 o          1 6XN      -0.614100
     26 NAW         -3.3530    -0.5980     0.7360 ns         1 6XN      -0.568900
     27 CBG         -4.2280    -1.7590     0.7630 c3         1 6XN       0.158000
     28 CAA         -4.5720    -2.1540     2.1930 c3         1 6XN      -0.107100
     29 CBC         -5.4230    -1.4820    -0.1250 ca         1 6XN      -0.106300
     30 CAO         -5.2310    -1.4270    -1.5050 ca         1 6XN      -0.106500
     31 CAI         -6.2790    -1.1580    -2.3690 ca         1 6XN      -0.123500
     32 CAZ         -7.5430    -0.9360    -1.8420 ca         1 6XN       0.034400
     33 CLA         -8.8660    -0.6000    -2.9120 cl         1 6XN      -0.108400
     34 CAJ         -7.7650    -0.9820    -0.4770 ca         1 6XN      -0.123500
     35 CAP         -6.7000    -1.2560     0.3730 ca         1 6XN      -0.106500
     36 H1           5.9730    -0.3160    -0.5120 ha         1 6XN       0.156500
     37 H2           4.5620     1.3480     0.6270 ha         1 6XN       0.152500
     38 H3           2.9750    -3.3100     0.1460 ha         1 6XN       0.156500
     39 H4           1.5550    -1.6370     1.2640 ha         1 6XN       0.152500
     40 H5           1.2260     0.5260     2.1650 h1         1 6XN       0.076700
     41 H6           2.6450     1.4890     2.5000 h1         1 6XN       0.076700
     42 H7           4.3160     5.4910     1.6620 h4         1 6XN       0.021100
     43 H8           3.1930     6.8090    -0.0840 ha         1 6XN       0.143000
     44 H9           1.3200     5.8030    -1.4070 ha         1 6XN       0.153000
     45 H10         -0.6360     0.8350    -1.3300 hc         1 6XN       0.083700
     46 H11          0.4220    -0.1270    -0.3200 hc         1 6XN       0.083700
     47 H12         -0.8900     0.7420     1.7240 hc         1 6XN       0.064200
     48 H13         -1.9930     1.5090     0.6050 hc         1 6XN       0.064200
     49 H14         -3.7800     0.3030     0.8890 hn         1 6XN       0.316500
     50 H15         -3.6670    -2.5790     0.3100 h1         1 6XN       0.088700
     51 H16         -3.6610    -2.4120     2.7320 hc         1 6XN       0.045367
     52 H17         -5.0610    -1.3420     2.7330 hc         1 6XN       0.045367
     53 H18         -5.2290    -3.0230     2.2120 hc         1 6XN       0.045367
     54 H19         -4.2440    -1.6010    -1.9170 ha         1 6XN       0.139500
     55 H20         -6.1140    -1.1260    -3.4380 ha         1 6XN       0.150000
     56 H21         -8.7520    -0.8080    -0.0730 ha         1 6XN       0.150000
     57 H22         -6.8900    -1.2900     1.4380 ha         1 6XN       0.139500
@<TRIPOS>BOND
     1     1     2 1   
     2     2     3 1   
     3     2     4 1   
     4     2     5 1   
     5     5     6 1   
     6     6     7 ar  
     7     6     9 ar  
     8     7     8 ar  
     9     7    36 1   
    10     8    11 ar  
    11     8    37 1   
    12     9    10 ar  
    13     9    38 1   
    14    10    11 ar  
    15    10    39 1   
    16    11    12 1   
    17    12    13 1   
    18    12    40 1   
    19    12    41 1   
    20    13    14 1   
    21    13    21 1   
    22    14    15 ar  
    23    14    19 ar  
    24    15    16 ar  
    25    16    17 ar  
    26    16    42 1   
    27    17    18 ar  
    28    17    43 1   
    29    18    19 ar  
    30    18    44 1   
    31    19    20 1   
    32    20    21 2   
    33    21    22 1   
    34    22    23 1   
    35    22    45 1   
    36    22    46 1   
    37    23    24 1   
    38    23    47 1   
    39    23    48 1   
    40    24    25 2   
    41    24    26 1   
    42    26    27 1   
    43    26    49 1   
    44    27    28 1   
    45    27    29 1   
    46    27    50 1   
    47    28    51 1   
    48    28    52 1   
    49    28    53 1   
    50    29    30 ar  
    51    29    35 ar  
    52    30    31 ar  
    53    30    54 1   
    54    31    32 ar  
    55    31    55 1   
    56    32    33 1   
    57    32    34 ar  
    58    34    35 ar  
    59    34    56 1   
    60    35    57 1   
@<TRIPOS>SUBSTRUCTURE
     1 6XN         1 TEMP              0 ****  ****    0 ROOT
