@<TRIPOS>MOLECULE
6XN
   57    60     1     0     0
SMALL
No Charge or Current Charge


@<TRIPOS>ATOM
      1 FAC          6.5680    -2.5910    -2.0540 f          1 6XN      -0.108333
      2 CBI          5.3910    -3.2100    -2.3040 c3         1 6XN       0.514000
      3 FAD          4.7890    -2.5640    -3.3300 f          1 6XN      -0.108333
      4 FAE          5.6880    -4.4530    -2.7440 f          1 6XN      -0.108333
      5 OAX          4.5500    -3.2730    -1.1340 os         1 6XN      -0.404100
      6 CBB          4.0790    -2.1620    -0.4580 ca         1 6XN       0.099100
      7 CAN          4.3730    -0.8320    -0.8380 ca         1 6XN      -0.102000
      8 CAL          3.8530     0.2450    -0.0980 ca         1 6XN      -0.083000
      9 CAM          3.2660    -2.3890     0.6650 ca         1 6XN      -0.102000
     10 CAK          2.7470    -1.3120     1.4050 ca         1 6XN      -0.083000
     11 CBA          3.0360     0.0120     1.0250 ca         1 6XN      -0.111300
     12 CAT          2.4620     1.1810     1.8170 c3         1 6XN       0.127900
     13 NBH          1.7560     2.1640     0.9760 na         1 6XN      -0.287300
     14 CBF          2.1300     3.4700     0.8170 ca         1 6XN       0.337500
     15 NAU          3.1660     4.1510     1.3560 nb         1 6XN      -0.675000
     16 CAH          3.2870     5.4570     1.0110 ca         1 6XN       0.352900
     17 CAG          2.3930     6.1040     0.1340 ca         1 6XN      -0.189000
     18 CAQ          1.3210     5.3770    -0.4170 ca         1 6XN      -0.013000
     19 CBE          1.2100     4.0280    -0.0510 ca         1 6XN       0.035400
     20 NAV          0.2410     3.1300    -0.4710 nc         1 6XN      -0.568100
     21 CBD          0.6140     2.0120     0.1730 cd         1 6XN       0.433800
     22 CAS         -0.1630     0.7280     0.0250 c3         1 6XN      -0.090700
     23 CAR         -1.1090     0.4400     1.2200 c3         1 6XN      -0.160400
     24 CAY         -1.8530    -0.8850     1.0390 c          1 6XN       0.601100
     25 OAB         -1.3060    -1.9680     1.1890 o          1 6XN      -0.614100
     26 NAW         -3.1850    -0.7670     0.7210 ns         1 6XN      -0.501900
     27 CBG         -4.1000    -1.8880     0.5200 c3         1 6XN       0.158000
     28 CAA         -4.5540    -2.4870     1.8670 c3         1 6XN      -0.107100
     29 CBC         -5.2770    -1.4490    -0.3480 ca         1 6XN      -0.106300
     30 CAO         -5.4270    -1.9750    -1.6480 ca         1 6XN      -0.088500
     31 CAI         -6.5040    -1.5730    -2.4580 ca         1 6XN      -0.105500
     32 CAZ         -7.4360    -0.6410    -1.9760 ca         1 6XN       0.126000
     33 ClA         -8.7820    -0.1390    -2.9900 cl         1 6XN      -0.200000
     34 CAJ         -7.2940    -0.1080    -0.6860 ca         1 6XN      -0.105500
     35 CAP         -6.2170    -0.5080     0.1260 ca         1 6XN      -0.088500
     36 H1           4.9980    -0.6100    -1.6970 ha         1 6XN       0.138500
     37 H2           4.0880     1.2640    -0.4000 ha         1 6XN       0.134500
     38 H3           3.0360    -3.4090     0.9630 ha         1 6XN       0.138500
     39 H4           2.1160    -1.5120     2.2690 ha         1 6XN       0.134500
     40 H5           1.7640     0.8110     2.5790 h1         1 6XN       0.076700
     41 H6           3.2820     1.6800     2.3500 h1         1 6XN       0.076700
     42 H7           4.1240     5.9990     1.4490 h4         1 6XN       0.021100
     43 H8           2.5350     7.1530    -0.1110 ha         1 6XN       0.125000
     44 H9           0.6090     5.8370    -1.0980 ha         1 6XN       0.135000
     45 H10         -0.7570     0.7660    -0.8970 hc         1 6XN       0.083700
     46 H11          0.5300    -0.1110    -0.1050 hc         1 6XN       0.083700
     47 H12         -0.5110     0.3790     2.1360 hc         1 6XN       0.064200
     48 H13         -1.8250     1.2670     1.3020 hc         1 6XN       0.064200
     49 H14         -3.5470     0.1720     0.6100 hn         1 6XN       0.316500
     50 H15         -3.5530    -2.6740    -0.0200 h1         1 6XN       0.088700
     51 H16         -3.6970    -2.8820     2.4250 hc         1 6XN       0.045367
     52 H17         -5.0490    -1.7340     2.4920 hc         1 6XN       0.045367
     53 H18         -5.2570    -3.3120     1.7000 hc         1 6XN       0.045367
     54 H19         -4.7100    -2.6970    -2.0340 ha         1 6XN       0.121500
     55 H20         -6.6160    -1.9830    -3.4590 ha         1 6XN       0.132000
     56 H21         -8.0150     0.6160    -0.3160 ha         1 6XN       0.132000
     57 H22         -6.1160    -0.0830     1.1220 ha         1 6XN       0.121500
@<TRIPOS>BOND
     1     1     2 1   
     2     2     3 1   
     3     2     4 1   
     4     2     5 1   
     5     5     6 1   
     6     6     7 ar  
     7     6     9 ar  
     8     7     8 ar  
     9     7    36 1   
    10     8    11 ar  
    11     8    37 1   
    12     9    10 ar  
    13     9    38 1   
    14    10    11 ar  
    15    10    39 1   
    16    11    12 1   
    17    12    13 1   
    18    12    40 1   
    19    12    41 1   
    20    13    14 1   
    21    13    21 1   
    22    14    15 ar  
    23    14    19 ar  
    24    15    16 ar  
    25    16    17 ar  
    26    16    42 1   
    27    17    18 ar  
    28    17    43 1   
    29    18    19 ar  
    30    18    44 1   
    31    19    20 1   
    32    20    21 2   
    33    21    22 1   
    34    22    23 1   
    35    22    45 1   
    36    22    46 1   
    37    23    24 1   
    38    23    47 1   
    39    23    48 1   
    40    24    25 2   
    41    24    26 1   
    42    26    27 1   
    43    26    49 1   
    44    27    28 1   
    45    27    29 1   
    46    27    50 1   
    47    28    51 1   
    48    28    52 1   
    49    28    53 1   
    50    29    30 ar  
    51    29    35 ar  
    52    30    31 ar  
    53    30    54 1   
    54    31    32 ar  
    55    31    55 1   
    56    32    33 1   
    57    32    34 ar  
    58    34    35 ar  
    59    34    56 1   
    60    35    57 1   
@<TRIPOS>SUBSTRUCTURE
     1 6XN         1 TEMP              0 ****  ****    0 ROOT
