@<TRIPOS>MOLECULE
6XO
   71    72     1     0     0
SMALL
No Charge or Current Charge


@<TRIPOS>ATOM
      1 C1           6.8220    -4.3340    -1.2370 ca         1 6XO      -0.121000
      2 C2           7.2260    -3.2680    -0.4170 ca         1 6XO      -0.124000
      3 C3           6.2760    -2.5620     0.3410 ca         1 6XO      -0.088500
      4 C9           2.1980    -0.4960     0.7700 c          1 6XO       0.632100
      5 C11          0.4720     1.1660    -0.0700 c3         1 6XO      -0.267000
      6 C14         -2.0500     2.9800     0.8800 c3         1 6XO       0.165500
      7 C15         -2.6520     1.7540     0.0940 c          1 6XO       0.569100
      8 C21         -3.0710     4.1510     0.9250 c3         1 6XO      -0.063400
      9 C22         -4.4520     3.8310     1.5690 c3         1 6XO      -0.078700
     10 C24         -4.3360     3.3940     3.0500 c3         1 6XO      -0.072100
     11 C27         -1.7370    -2.1100     0.0810 c6         1 6XO      -0.065700
     12 C30          0.1770    -3.7370    -1.5800 c6         1 6XO      -0.067400
     13 C31          0.2240    -3.7720    -0.0350 c6         1 6XO      -0.076900
     14 C32         -1.1670    -3.4710     0.5760 c6         1 6XO      -0.065900
     15 C33         -5.2830    -0.4470     0.9360 c          1 6XO       0.715000
     16 C4           4.9140    -2.9210     0.2850 ca         1 6XO      -0.071300
     17 P12          0.7150     2.8810     0.5860 p5         1 6XO       1.366300
     18 O20          0.9650     2.8950     2.0540 o          1 6XO      -0.828500
     19 O19          1.6820     3.6530    -0.2410 o          1 6XO      -0.828500
     20 N13         -0.7750     3.5110     0.3060 n7         1 6XO      -0.970500
     21 C23         -5.4130     5.0340     1.4320 c3         1 6XO      -0.072100
     22 C17         -3.8250    -0.4910     0.3780 c3         1 6XO      -0.035300
     23 C26         -3.1360    -1.8410     0.7200 c3         1 6XO      -0.066400
     24 C29         -0.3780    -2.3850    -2.0870 c6         1 6XO      -0.076900
     25 C28         -1.7680    -2.0760    -1.4760 c6         1 6XO      -0.065900
     26 C5           4.5140    -3.9910    -0.5420 ca         1 6XO      -0.088500
     27 C6           5.4660    -4.6950    -1.3000 ca         1 6XO      -0.124000
     28 O8           3.2390    -1.2010     0.2510 os         1 6XO      -0.477100
     29 O18          1.7510    -0.6100     1.9000 o          1 6XO      -0.545000
     30 N10          1.6780     0.3060    -0.2140 ns         1 6XO      -0.444900
     31 H1           7.5580    -4.8790    -1.8240 ha         1 6XO       0.096000
     32 H2           8.2760    -2.9870    -0.3700 ha         1 6XO       0.101000
     33 H3           6.5970    -1.7360     0.9720 ha         1 6XO       0.120000
     34 H6          -0.2200     0.6880     0.6290 h1         1 6XO       0.062700
     35 H7          -0.0160     1.2550    -1.0470 h1         1 6XO       0.062700
     36 H8          -1.8700     2.6550     1.9130 h1         1 6XO       0.068700
     37 H9          -2.6190     4.9910     1.4690 hc         1 6XO       0.037700
     38 H10         -3.2370     4.5040    -0.1010 hc         1 6XO       0.037700
     39 H11         -4.9100     3.0010     1.0150 hc         1 6XO       0.106700
     40 H12         -3.8420     4.1700     3.6480 hc         1 6XO       0.017367
     41 H13         -5.3290     3.2150     3.4780 hc         1 6XO       0.017367
     42 H14         -3.7630     2.4650     3.1490 hc         1 6XO       0.017367
     43 H15         -1.0700    -1.3160     0.4360 hc         1 6XO       0.070700
     44 H16          1.1830    -3.9030    -1.9880 hc         1 6XO       0.015200
     45 H17         -0.4520    -4.5580    -1.9500 hc         1 6XO       0.015200
     46 H18          0.5760    -4.7560     0.3050 hc         1 6XO       0.033700
     47 H19          0.9530    -3.0380     0.3290 hc         1 6XO       0.033700
     48 H20         -1.0880    -3.4670     1.6720 hc         1 6XO       0.033950
     49 H21         -1.8610    -4.2820     0.3180 hc         1 6XO       0.033950
     50 H23         -0.8290     3.4930    -0.7100 hn         1 6XO       0.447000
     51 H24         -5.5420     5.3100     0.3780 hc         1 6XO       0.017367
     52 H25         -6.4020     4.7900     1.8390 hc         1 6XO       0.017367
     53 H26         -5.0260     5.9070     1.9700 hc         1 6XO       0.017367
     54 H28         -3.9170    -0.4210    -0.7120 h1         1 6XO       0.059700
     55 H30         -3.8200    -2.6460     0.4220 hc         1 6XO       0.039700
     56 H31         -3.0530    -1.9130     1.8110 hc         1 6XO       0.039700
     57 H32          0.3240    -1.5800    -1.8340 hc         1 6XO       0.033700
     58 H33         -0.4500    -2.4010    -3.1830 hc         1 6XO       0.033700
     59 H34         -2.5040    -2.8010    -1.8500 hc         1 6XO       0.033950
     60 H35         -2.0940    -1.0890    -1.8300 hc         1 6XO       0.033950
     61 H36          3.4650    -4.2730    -0.5970 ha         1 6XO       0.120000
     62 H37          5.1510    -5.5190    -1.9360 ha         1 6XO       0.101000
     63 H38          2.1700     0.2790    -1.1000 hn         1 6XO       0.314500
     64 C7           3.8790    -2.1630     1.1050 c3         1 6XO       0.228900
     65 O25         -2.7530     1.7450    -1.1290 o          1 6XO      -0.652100
     66 O35         -6.2070    -0.3900     0.1360 o          1 6XO      -0.737500
     67 H4           3.1470    -2.8770     1.5050 h1         1 6XO       0.052200
     68 H5           4.3650    -1.6660     1.9550 h1         1 6XO       0.052200
     69 N16         -3.0610     0.6840     0.8730 ns         1 6XO      -0.460900
     70 O34         -5.4460    -0.4020     2.1490 o          1 6XO      -0.737500
     71 H27         -2.9490     0.7800     1.8750 hn         1 6XO       0.301500
@<TRIPOS>BOND
     1     1     2 ar  
     2     1    27 ar  
     3     1    31 1   
     4     2     3 ar  
     5     2    32 1   
     6     3    16 ar  
     7     3    33 1   
     8     4    28 1   
     9     4    29 2   
    10     4    30 1   
    11     5    17 1   
    12     5    30 1   
    13     5    34 1   
    14     5    35 1   
    15     6     7 1   
    16     6     8 1   
    17     6    20 1   
    18     6    36 1   
    19     7    65 2   
    20     7    69 1   
    21     8     9 1   
    22     8    37 1   
    23     8    38 1   
    24     9    10 1   
    25     9    21 1   
    26     9    39 1   
    27    10    40 1   
    28    10    41 1   
    29    10    42 1   
    30    11    14 1   
    31    11    23 1   
    32    11    25 1   
    33    11    43 1   
    34    12    13 1   
    35    12    24 1   
    36    12    44 1   
    37    12    45 1   
    38    13    14 1   
    39    13    46 1   
    40    13    47 1   
    41    14    48 1   
    42    14    49 1   
    43    15    22 1   
    44    15    66 1   
    45    15    70 1   
    46    16    26 ar  
    47    16    64 1   
    48    17    18 1   
    49    17    19 1   
    50    17    20 1   
    51    20    50 1   
    52    21    51 1   
    53    21    52 1   
    54    21    53 1   
    55    22    23 1   
    56    22    54 1   
    57    22    69 1   
    58    23    55 1   
    59    23    56 1   
    60    24    25 1   
    61    24    57 1   
    62    24    58 1   
    63    25    59 1   
    64    25    60 1   
    65    26    27 ar  
    66    26    61 1   
    67    27    62 1   
    68    28    64 1   
    69    30    63 1   
    70    64    67 1   
    71    64    68 1   
    72    69    71 1   
@<TRIPOS>SUBSTRUCTURE
     1 6XO         1 TEMP              0 ****  ****    0 ROOT
