@<TRIPOS>MOLECULE
6XO
   71    72     1     0     0
SMALL
abcg2


@<TRIPOS>ATOM
      1 C1           7.4330    -3.5070    -0.2010 ca         1 6XO      -0.121000
      2 C2           7.3650    -2.6690     0.9030 ca         1 6XO      -0.124000
      3 C3           6.1420    -2.1460     1.3050 ca         1 6XO      -0.088500
      4 C9           1.9310    -0.5800     0.1460 c          1 6XO       0.632100
      5 C11          0.3330     0.8510    -1.0220 c3         1 6XO      -0.267000
      6 C14         -2.0190     2.7910     0.5280 c3         1 6XO       0.165500
      7 C15         -3.0000     1.8010    -0.1000 c          1 6XO       0.569100
      8 C21         -2.7720     3.9940     1.1020 c3         1 6XO      -0.063400
      9 C22         -3.8150     3.6830     2.1760 c3         1 6XO      -0.078700
     10 C24         -3.2000     2.9920     3.3900 c3         1 6XO      -0.072100
     11 C27         -2.1620    -2.2100    -0.0390 c6         1 6XO      -0.065700
     12 C30         -0.3770    -4.0340    -1.5640 c6         1 6XO      -0.067400
     13 C31         -0.4450    -4.0790    -0.0420 c6         1 6XO      -0.076900
     14 C32         -1.8060    -3.6120     0.4630 c6         1 6XO      -0.065900
     15 C33         -5.4660    -0.1680     0.5870 c          1 6XO       0.715000
     16 C4           4.9760    -2.4630     0.6170 ca         1 6XO      -0.071300
     17 P12          0.5370     2.6130    -0.5030 p5         1 6XO       1.366300
     18 O20          1.0800     2.6090     0.9020 o          1 6XO      -0.828500
     19 O19          1.2630     3.3410    -1.6090 o          1 6XO      -0.828500
     20 N13         -1.0500     3.2240    -0.4590 n7         1 6XO      -0.970500
     21 C23         -4.5140     4.9710     2.5990 c3         1 6XO      -0.072100
     22 C17         -4.0270    -0.4140     0.0610 c3         1 6XO      -0.035300
     23 C26         -3.5380    -1.8000     0.4840 c3         1 6XO      -0.066400
     24 C29         -0.7270    -2.6440    -2.0860 c6         1 6XO      -0.076900
     25 C28         -2.0770    -2.1620    -1.5640 c6         1 6XO      -0.065900
     26 C5           5.0530    -3.3070    -0.4900 ca         1 6XO      -0.088500
     27 C6           6.2720    -3.8250    -0.8980 ca         1 6XO      -0.124000
     28 O8           3.1920    -1.0350     0.0290 os         1 6XO      -0.477100
     29 O18          1.2260    -0.8140     1.1060 o          1 6XO      -0.545000
     30 N10          1.5750     0.1150    -0.9440 ns         1 6XO      -0.444900
     31 H1           8.3840    -3.9150    -0.5160 ha         1 6XO       0.096000
     32 H2           8.2640    -2.4190     1.4510 ha         1 6XO       0.101000
     33 H3           6.0970    -1.4870     2.1640 ha         1 6XO       0.120000
     34 H6          -0.4060     0.3510    -0.3970 h1         1 6XO       0.062700
     35 H7          -0.0420     0.7950    -2.0470 h1         1 6XO       0.062700
     36 H8          -1.4660     2.3060     1.3360 h1         1 6XO       0.068700
     37 H9          -2.0220     4.6770     1.5150 hc         1 6XO       0.037700
     38 H10         -3.2530     4.5260     0.2750 hc         1 6XO       0.037700
     39 H11         -4.5660     3.0060     1.7560 hc         1 6XO       0.106700
     40 H12         -2.3720     3.5790     3.7960 hc         1 6XO       0.017367
     41 H13         -3.9380     2.8690     4.1840 hc         1 6XO       0.017367
     42 H14         -2.8190     1.9980     3.1540 hc         1 6XO       0.017367
     43 H15         -1.4070    -1.5230     0.3620 hc         1 6XO       0.070700
     44 H16          0.6170    -4.3280    -1.9100 hc         1 6XO       0.015200
     45 H17         -1.0790    -4.7660    -1.9790 hc         1 6XO       0.015200
     46 H18         -0.2380    -5.0910     0.3170 hc         1 6XO       0.033700
     47 H19          0.3350    -3.4350     0.3770 hc         1 6XO       0.033700
     48 H20         -1.8260    -3.6270     1.5570 hc         1 6XO       0.033950
     49 H21         -2.5780    -4.3170     0.1310 hc         1 6XO       0.033950
     50 H23         -1.4690     3.4500    -1.3510 hn         1 6XO       0.447000
     51 H24         -4.9670     5.4810     1.7470 hc         1 6XO       0.017367
     52 H25         -5.3050     4.7720     3.3250 hc         1 6XO       0.017367
     53 H26         -3.8090     5.6650     3.0640 hc         1 6XO       0.017367
     54 H28         -4.0770    -0.3790    -1.0290 h1         1 6XO       0.059700
     55 H30         -4.2800    -2.5260     0.1410 hc         1 6XO       0.039700
     56 H31         -3.5340    -1.8620     1.5790 hc         1 6XO       0.039700
     57 H32          0.0500    -1.9380    -1.7760 hc         1 6XO       0.033700
     58 H33         -0.7280    -2.6400    -3.1790 hc         1 6XO       0.033700
     59 H34         -2.8780    -2.7840    -1.9840 hc         1 6XO       0.033950
     60 H35         -2.2560    -1.1440    -1.9220 hc         1 6XO       0.033950
     61 H36          4.1520    -3.5670    -1.0340 ha         1 6XO       0.120000
     62 H37          6.3180    -4.4810    -1.7580 ha         1 6XO       0.101000
     63 H38          2.2800     0.3080    -1.6370 hn         1 6XO       0.314500
     64 C7           3.6510    -1.9140     1.0550 c3         1 6XO       0.228900
     65 O25         -3.6290     2.1050    -1.1080 o          1 6XO      -0.652100
     66 O35         -6.3330    -0.9250     0.1040 o          1 6XO      -0.737500
     67 H4           2.9340    -2.7260     1.2030 h1         1 6XO       0.052200
     68 H5           3.7490    -1.3800     2.0030 h1         1 6XO       0.052200
     69 N16         -3.0850     0.5970     0.4800 ns         1 6XO      -0.460900
     70 O34         -5.6380     0.7260     1.4330 o          1 6XO      -0.737500
     71 H27         -2.6250     0.4670     1.3670 hn         1 6XO       0.301500
@<TRIPOS>BOND
     1     1     2 ar  
     2     1    27 ar  
     3     1    31 1   
     4     2     3 ar  
     5     2    32 1   
     6     3    16 ar  
     7     3    33 1   
     8     4    28 1   
     9     4    29 2   
    10     4    30 1   
    11     5    17 1   
    12     5    30 1   
    13     5    34 1   
    14     5    35 1   
    15     6     7 1   
    16     6     8 1   
    17     6    20 1   
    18     6    36 1   
    19     7    65 2   
    20     7    69 1   
    21     8     9 1   
    22     8    37 1   
    23     8    38 1   
    24     9    10 1   
    25     9    21 1   
    26     9    39 1   
    27    10    40 1   
    28    10    41 1   
    29    10    42 1   
    30    11    14 1   
    31    11    23 1   
    32    11    25 1   
    33    11    43 1   
    34    12    13 1   
    35    12    24 1   
    36    12    44 1   
    37    12    45 1   
    38    13    14 1   
    39    13    46 1   
    40    13    47 1   
    41    14    48 1   
    42    14    49 1   
    43    15    22 1   
    44    15    66 1   
    45    15    70 1   
    46    16    26 ar  
    47    16    64 1   
    48    17    18 1   
    49    17    19 1   
    50    17    20 1   
    51    20    50 1   
    52    21    51 1   
    53    21    52 1   
    54    21    53 1   
    55    22    23 1   
    56    22    54 1   
    57    22    69 1   
    58    23    55 1   
    59    23    56 1   
    60    24    25 1   
    61    24    57 1   
    62    24    58 1   
    63    25    59 1   
    64    25    60 1   
    65    26    27 ar  
    66    26    61 1   
    67    27    62 1   
    68    28    64 1   
    69    30    63 1   
    70    64    67 1   
    71    64    68 1   
    72    69    71 1   
@<TRIPOS>SUBSTRUCTURE
     1 6XO         1 TEMP              0 ****  ****    0 ROOT
