@<TRIPOS>MOLECULE
6XP
   43    45     1     0     0
SMALL
bcc


@<TRIPOS>ATOM
      1 C50         -1.4060     1.9700     1.2460 c3         1 6XP      -0.081100
      2 C2          -3.7540    -0.8930     0.9640 ca         1 6XP      -0.071000
      3 C6          -4.1190     1.2740     0.0420 ca         1 6XP      -0.071000
      4 C3          -5.1060    -1.1810     0.8610 ca         1 6XP      -0.195500
      5 C5          -5.4750     1.0030    -0.0670 ca         1 6XP      -0.195500
      6 C19         -1.0830     0.4700    -0.6950 c          1 6XP       0.688100
      7 C20         -1.7520     0.5950     0.6690 c3         1 6XP      -0.086400
      8 N13          2.7490     1.8030    -0.1670 ns         1 6XP      -0.481100
      9 N17          0.8140    -0.4730    -1.7880 n7         1 6XP      -0.512200
     10 N18         -0.0030    -0.3460    -0.6870 ns         1 6XP      -0.479300
     11 O21         -1.4680     1.0780    -1.6710 o          1 6XP      -0.542100
     12 C1          -3.2330     0.3340     0.5600 ca         1 6XP      -0.116300
     13 C4          -5.9780    -0.2300     0.3390 ca         1 6XP       0.143100
     14 C8           4.0930    -0.7250     2.1640 ca         1 6XP      -0.079000
     15 C7           3.7780    -1.8590     1.4280 ca         1 6XP      -0.154000
     16 C11          2.8290    -0.4600    -0.2690 ca         1 6XP      -0.196300
     17 C9           3.7950     0.5660     1.7270 ca         1 6XP      -0.113300
     18 C15          2.1560     0.0010    -1.5340 c5         1 6XP       0.128800
     19 C10          3.1410    -1.7140     0.2010 ca         1 6XP       0.073400
     20 C12          3.1560     0.6530     0.4990 ca         1 6XP       0.092600
     21 C14          2.1510     1.5320    -1.3600 c          1 6XP       0.711500
     22 H501        -0.3240     2.0970     1.3200 hc         1 6XP       0.043033
     23 H502        -1.7920     2.7800     0.6280 hc         1 6XP       0.043033
     24 H503        -1.8240     2.0760     2.2460 hc         1 6XP       0.043033
     25 H20         -1.3320    -0.1570     1.3440 hc         1 6XP       0.049700
     26 H2          -3.0920    -1.6450     1.3760 ha         1 6XP       0.134000
     27 H3          -5.4860    -2.1420     1.1870 ha         1 6XP       0.138500
     28 H6          -3.7630     2.2430    -0.2830 ha         1 6XP       0.134000
     29 H5          -6.1400     1.7580    -0.4710 ha         1 6XP       0.138500
     30 H18          0.2230    -0.8630     0.1530 hn         1 6XP       0.304500
     31 H241         4.7240     2.4980     1.9590 hc         1 6XP       0.047033
     32 H242         3.2250     2.3060     2.8580 hc         1 6XP       0.047033
     33 H243         4.6950     1.5210     3.4220 hc         1 6XP       0.047033
     34 H13          2.8830     2.7420     0.1780 hn         1 6XP       0.341500
     35 H17          0.8170    -1.4290    -2.1190 hn         1 6XP       0.383800
     36 H22         -7.7860     0.1890    -0.1140 ho         1 6XP       0.426000
     37 H8           4.5920    -0.8510     3.1160 ha         1 6XP       0.139000
     38 H7           4.0240    -2.8410     1.8070 ha         1 6XP       0.154000
     39 H15          2.7590    -0.2470    -2.4130 h1         1 6XP       0.110700
     40 O22         -7.2860    -0.5480     0.2550 oh         1 6XP      -0.495100
     41 O16          1.6990     2.3390    -2.1360 o          1 6XP      -0.545500
     42 CL2          2.7330    -3.1070    -0.7480 cl         1 6XP      -0.105400
     43 C24          4.1280     1.7850     2.5310 c3         1 6XP      -0.043800
@<TRIPOS>BOND
     1     1     7 1   
     2     1    22 1   
     3     1    23 1   
     4     1    24 1   
     5     2     4 ar  
     6     2    12 ar  
     7     2    26 1   
     8     3     5 ar  
     9     3    12 ar  
    10     3    28 1   
    11     4    13 ar  
    12     4    27 1   
    13     5    13 ar  
    14     5    29 1   
    15     6     7 1   
    16     6    10 1   
    17     6    11 2   
    18     7    12 1   
    19     7    25 1   
    20     8    20 1   
    21     8    21 1   
    22     8    34 1   
    23     9    10 1   
    24     9    18 1   
    25     9    35 1   
    26    10    30 1   
    27    13    40 1   
    28    14    15 ar  
    29    14    17 ar  
    30    14    37 1   
    31    15    19 ar  
    32    15    38 1   
    33    16    18 1   
    34    16    19 ar  
    35    16    20 ar  
    36    17    20 ar  
    37    17    43 1   
    38    18    21 1   
    39    18    39 1   
    40    19    42 1   
    41    21    41 2   
    42    31    43 1   
    43    32    43 1   
    44    33    43 1   
    45    36    40 1   
@<TRIPOS>SUBSTRUCTURE
     1 6XP         1 TEMP              0 ****  ****    0 ROOT
