@<TRIPOS>MOLECULE
6XP
   43    45     1     0     0
SMALL
No Charge or Current Charge


@<TRIPOS>ATOM
      1 C50         -1.9500     2.6060     0.9870 c3         1 6XP      -0.081100
      2 C2          -3.6350    -0.6860     1.2570 ca         1 6XP      -0.053000
      3 C6          -4.3810     1.1070    -0.2070 ca         1 6XP      -0.053000
      4 C3          -4.9210    -1.2520     1.2150 ca         1 6XP      -0.177500
      5 C5          -5.6660     0.5370    -0.2470 ca         1 6XP      -0.177500
      6 C19         -1.1830     0.8690    -0.7240 c          1 6XP       0.621100
      7 C20         -1.9450     1.1070     0.6010 c3         1 6XP      -0.086400
      8 N13          3.0790     1.7400    -0.0610 ns         1 6XP      -0.155000
      9 N17          0.8250    -0.2670    -1.7030 n7         1 6XP      -0.567400
     10 N18         -0.0420     0.0750    -0.6090 ns         1 6XP      -0.412300
     11 O21         -1.5500     1.3380    -1.7960 o          1 6XP      -0.542100
     12 C1          -3.3540     0.5020     0.5500 ca         1 6XP      -0.116300
     13 C4          -5.9350    -0.6410     0.4650 ca         1 6XP       0.143100
     14 C8           4.1540    -1.1040     2.1240 ca         1 6XP      -0.061000
     15 C7           3.6980    -2.1340     1.2660 ca         1 6XP      -0.136000
     16 C11          2.8970    -0.4740    -0.3000 ca         1 6XP      -0.196300
     17 C9           3.9880     0.2520     1.7640 ca         1 6XP      -0.113300
     18 C15          2.2560     0.1480    -1.5430 c5         1 6XP       0.128800
     19 C10          3.0660    -1.8240     0.0450 ca         1 6XP       0.165000
     20 C12          3.3560     0.5190     0.5420 ca         1 6XP       0.000000
     21 C14          2.4540     1.7020    -1.2900 c          1 6XP       0.569000
     22 H501        -0.9240     2.9710     1.1150 hc         1 6XP       0.043033
     23 H502        -2.4310     3.2190     0.2150 hc         1 6XP       0.043033
     24 H503        -2.4860     2.7590     1.9320 hc         1 6XP       0.043033
     25 H20         -1.3840     0.5960     1.3940 hc         1 6XP       0.049700
     26 H2          -2.8580    -1.1720     1.8430 ha         1 6XP       0.116000
     27 H3          -5.1280    -2.1660     1.7650 ha         1 6XP       0.120500
     28 H6          -4.1870     2.0160    -0.7720 ha         1 6XP       0.116000
     29 H5          -6.4450     1.0170    -0.8350 ha         1 6XP       0.120500
     30 H18          0.1500    -0.2750     0.3280 hn         1 6XP       0.304500
     31 H241         5.2340     1.9860     2.1530 hc         1 6XP       0.047033
     32 H242         3.6520     2.0380     2.9510 hc         1 6XP       0.047033
     33 H243         4.9310     0.9920     3.5850 hc         1 6XP       0.047033
     34 H13          3.3400     2.6160     0.3730 hn         1 6XP       0.175000
     35 H17          0.7580    -1.2660    -1.9610 hn         1 6XP       0.439000
     36 H22         -7.7510    -0.6420    -0.1380 ho         1 6XP       0.465000
     37 H8           4.6400    -1.3650     3.0620 ha         1 6XP       0.121000
     38 H7           3.8360    -3.1740     1.5500 ha         1 6XP       0.136000
     39 H15          2.8420    -0.1050    -2.4380 h1         1 6XP       0.110700
     40 O22         -7.1770    -1.1990     0.4310 oh         1 6XP      -0.534100
     41 O16          2.1440     2.6710    -1.9750 o          1 6XP      -0.470000
     42 Cl2          2.5150    -3.1120    -1.0200 cl         1 6XP      -0.197000
     43 C24          4.4790     1.3770     2.6630 c3         1 6XP      -0.043800
@<TRIPOS>BOND
     1     1     7 1   
     2     1    22 1   
     3     1    23 1   
     4     1    24 1   
     5     2     4 ar  
     6     2    12 ar  
     7     2    26 1   
     8     3     5 ar  
     9     3    12 ar  
    10     3    28 1   
    11     4    13 ar  
    12     4    27 1   
    13     5    13 ar  
    14     5    29 1   
    15     6     7 1   
    16     6    10 1   
    17     6    11 2   
    18     7    12 1   
    19     7    25 1   
    20     8    20 1   
    21     8    21 1   
    22     8    34 1   
    23     9    10 1   
    24     9    18 1   
    25     9    35 1   
    26    10    30 1   
    27    13    40 1   
    28    14    15 ar  
    29    14    17 ar  
    30    14    37 1   
    31    15    19 ar  
    32    15    38 1   
    33    16    18 1   
    34    16    19 ar  
    35    16    20 ar  
    36    17    20 ar  
    37    17    43 1   
    38    18    21 1   
    39    18    39 1   
    40    19    42 1   
    41    21    41 2   
    42    31    43 1   
    43    32    43 1   
    44    33    43 1   
    45    36    40 1   
@<TRIPOS>SUBSTRUCTURE
     1 6XP         1 TEMP              0 ****  ****    0 ROOT
