@<TRIPOS>MOLECULE
6XQ
   90    95     1     0     0
SMALL
No Charge or Current Charge


@<TRIPOS>ATOM
      1 O1          18.9790    31.3460    18.9650 o          1 6XQ      -0.740000
      2 C7          19.3980    31.7660    23.6000 ca         1 6XQ      -0.014300
      3 O2          19.4500    29.4140    19.7900 o          1 6XQ      -0.740000
      4 C6          19.0430    30.5610    19.9000 c          1 6XQ       0.708000
      5 C1          21.6080    32.7370    20.6030 cx         1 6XQ      -0.138400
      6 N1          19.5990    31.2750    32.4760 nh         1 6XQ      -0.784400
      7 C5          18.5920    31.0380    21.2910 c3         1 6XQ      -0.189400
      8 C4          19.7950    31.5430    22.1370 c3         1 6XQ       0.013600
      9 C3          20.4430    32.8070    21.5650 cx         1 6XQ      -0.087700
     10 C2          21.8220    33.2360    22.0140 cx         1 6XQ      -0.138400
     11 O3          16.5800    32.1340    33.0010 o          1 6XQ      -0.598100
     12 N2          17.3170    34.2190    33.6490 n          1 6XQ      -0.412300
     13 C31         16.1780    34.9150    32.9860 c3         1 6XQ       0.113000
     14 C32         16.4220    35.5210    31.5630 c3         1 6XQ      -0.063000
     15 C35         15.0400    35.8500    30.9390 c3         1 6XQ      -0.087767
     16 C34         17.2370    36.8400    31.6450 c3         1 6XQ      -0.087767
     17 C33         17.1540    34.5120    30.6400 c3         1 6XQ      -0.087767
     18 C25         18.3660    34.9990    34.1920 ca         1 6XQ       0.483900
     19 N3          19.5430    34.9510    33.5390 nb         1 6XQ      -0.675000
     20 C29         20.5870    35.6230    34.0630 ca         1 6XQ       0.373300
     21 C30         21.8910    35.5320    33.2960 c3         1 6XQ      -0.143400
     22 C28         20.4960    36.3550    35.2610 ca         1 6XQ      -0.174000
     23 C27         19.2730    36.3930    35.9500 ca         1 6XQ      -0.064000
     24 C26         18.1900    35.6900    35.4020 ca         1 6XQ      -0.178000
     25 C23         18.4590    32.1710    34.4540 ca         1 6XQ      -0.172600
     26 C22         18.4190    32.3410    35.8530 ca         1 6XQ      -0.043000
     27 C21         19.4050    31.7580    36.6620 ca         1 6XQ      -0.169000
     28 C20         20.4360    31.0040    36.0870 ca         1 6XQ       0.160100
     29 O4          21.3790    30.4540    36.9300 os         1 6XQ      -0.353100
     30 C36         22.4810    29.6680    36.4410 c3         1 6XQ       0.149900
     31 C19         20.4780    30.8370    34.6890 ca         1 6XQ      -0.244000
     32 C18         19.4950    31.4190    33.8720 ca         1 6XQ       0.357000
     33 C17         18.9320    30.1250    31.8150 c6         1 6XQ       0.189300
     34 C16         18.6070    30.4580    30.3400 c6         1 6XQ      -0.072400
     35 C37         20.8410    31.7250    31.7930 c6         1 6XQ       0.189300
     36 C38         20.5680    32.0700    30.3090 c6         1 6XQ      -0.072400
     37 C15         19.8840    30.8900    29.5730 c6         1 6XQ       0.006500
     38 C14         19.5650    31.2710    28.1460 cc         1 6XQ       0.010900
     39 O5          20.2760    30.7260    27.0750 os         1 6XQ      -0.200200
     40 C9          19.7120    31.3090    25.9570 ca         1 6XQ       0.066100
     41 C8          20.0900    31.0790    24.6290 ca         1 6XQ      -0.118000
     42 C13         18.6060    32.1520    27.6840 cd         1 6XQ      -0.218200
     43 C10         18.6990    32.1780    26.2620 ca         1 6XQ      -0.132800
     44 C11         17.9890    32.8830    25.2870 ca         1 6XQ      -0.076000
     45 C12         18.3520    32.6680    23.9400 ca         1 6XQ      -0.122000
     46 H2          22.0040    31.7570    20.3470 hc         1 6XQ       0.066200
     47 H3          21.6390    33.4650    19.7960 hc         1 6XQ       0.066200
     48 H4          17.8860    31.8720    21.1990 hc         1 6XQ       0.025700
     49 H5          18.1910    30.1870    21.8550 hc         1 6XQ       0.025700
     50 H6          20.5460    30.7420    22.1120 hc         1 6XQ       0.068700
     51 H7          19.7250    33.6080    21.4050 hc         1 6XQ       0.065700
     52 H8          22.3590    32.5890    22.7030 hc         1 6XQ       0.066200
     53 H9          21.9980    34.2990    22.1560 hc         1 6XQ       0.066200
     54 H10         15.8400    35.7200    33.6520 h1         1 6XQ       0.055200
     55 H11         15.3340    34.2160    32.9240 h1         1 6XQ       0.055200
     56 H12         14.4880    36.5650    31.5620 hc         1 6XQ       0.038144
     57 H13         15.1520    36.2890    29.9400 hc         1 6XQ       0.038144
     58 H14         14.4270    34.9450    30.8390 hc         1 6XQ       0.038144
     59 H15         16.7760    37.5460    32.3470 hc         1 6XQ       0.038144
     60 H16         18.2670    36.6640    31.9680 hc         1 6XQ       0.038144
     61 H17         17.2870    37.3280    30.6640 hc         1 6XQ       0.038144
     62 H18         16.5880    33.5770    30.5520 hc         1 6XQ       0.038144
     63 H19         17.2820    34.9260    29.6320 hc         1 6XQ       0.038144
     64 H20         18.1490    34.2730    31.0300 hc         1 6XQ       0.038144
     65 H21         21.7160    35.4470    32.2170 hc         1 6XQ       0.053033
     66 H22         22.5110    36.4200    33.4610 hc         1 6XQ       0.053033
     67 H23         22.4660    34.6550    33.6140 hc         1 6XQ       0.053033
     68 H24         21.3640    36.8780    35.6520 ha         1 6XQ       0.122000
     69 H25         19.1710    36.9430    36.8840 ha         1 6XQ       0.117000
     70 H26         17.2270    35.6760    35.9050 ha         1 6XQ       0.127000
     71 H27         17.6200    32.9200    36.3120 ha         1 6XQ       0.116000
     72 H28         19.3700    31.8900    37.7400 ha         1 6XQ       0.126000
     73 H29         23.1080    29.3300    37.2760 h1         1 6XQ       0.041700
     74 H30         22.1200    28.7810    35.9050 h1         1 6XQ       0.041700
     75 H31         23.1100    30.2590    35.7610 h1         1 6XQ       0.041700
     76 H32         21.2680    30.2620    34.2200 ha         1 6XQ       0.121000
     77 H33         17.9990    29.8710    32.3380 h1         1 6XQ       0.038200
     78 H34         19.5830    29.2390    31.8550 h1         1 6XQ       0.038200
     79 H35         17.8570    31.2590    30.3120 hc         1 6XQ       0.059450
     80 H36         18.1530    29.5840    29.8550 hc         1 6XQ       0.059450
     81 H37         21.6060    30.9360    31.8460 h1         1 6XQ       0.038200
     82 H38         21.2480    32.6150    32.2940 h1         1 6XQ       0.038200
     83 H39         21.5120    32.3290    29.8120 hc         1 6XQ       0.059450
     84 H40         19.9330    32.9640    30.2570 hc         1 6XQ       0.059450
     85 H41         20.5820    30.0400    29.5690 hc         1 6XQ       0.057700
     86 H42         20.8980    30.3890    24.4040 ha         1 6XQ       0.131000
     87 H43         17.9150    32.7200    28.2980 ha         1 6XQ       0.201000
     88 H44         17.1910    33.5710    25.5540 ha         1 6XQ       0.105000
     89 H45         17.8230    33.2070    23.1590 ha         1 6XQ       0.120000
     90 C24         17.4080    32.8140    33.6000 c          1 6XQ       0.654700
@<TRIPOS>BOND
     1     1     4 1   
     2     2     8 1   
     3     2    41 ar  
     4     2    45 ar  
     5     3     4 1   
     6     4     7 1   
     7     5     9 1   
     8     5    10 1   
     9     5    46 1   
    10     5    47 1   
    11     6    32 1   
    12     6    33 1   
    13     6    35 1   
    14     7     8 1   
    15     7    48 1   
    16     7    49 1   
    17     8     9 1   
    18     8    50 1   
    19     9    10 1   
    20     9    51 1   
    21    10    52 1   
    22    10    53 1   
    23    11    90 2   
    24    12    13 1   
    25    12    18 1   
    26    12    90 1   
    27    13    14 1   
    28    13    54 1   
    29    13    55 1   
    30    14    15 1   
    31    14    16 1   
    32    14    17 1   
    33    15    56 1   
    34    15    57 1   
    35    15    58 1   
    36    16    59 1   
    37    16    60 1   
    38    16    61 1   
    39    17    62 1   
    40    17    63 1   
    41    17    64 1   
    42    18    19 ar  
    43    18    24 ar  
    44    19    20 ar  
    45    20    21 1   
    46    20    22 ar  
    47    21    65 1   
    48    21    66 1   
    49    21    67 1   
    50    22    23 ar  
    51    22    68 1   
    52    23    24 ar  
    53    23    69 1   
    54    24    70 1   
    55    25    26 ar  
    56    25    32 ar  
    57    25    90 1   
    58    26    27 ar  
    59    26    71 1   
    60    27    28 ar  
    61    27    72 1   
    62    28    29 1   
    63    28    31 ar  
    64    29    30 1   
    65    30    73 1   
    66    30    74 1   
    67    30    75 1   
    68    31    32 ar  
    69    31    76 1   
    70    33    34 1   
    71    33    77 1   
    72    33    78 1   
    73    34    37 1   
    74    34    79 1   
    75    34    80 1   
    76    35    36 1   
    77    35    81 1   
    78    35    82 1   
    79    36    37 1   
    80    36    83 1   
    81    36    84 1   
    82    37    38 1   
    83    37    85 1   
    84    38    39 1   
    85    38    42 2   
    86    39    40 1   
    87    40    41 ar  
    88    40    43 ar  
    89    41    86 1   
    90    42    43 1   
    91    42    87 1   
    92    43    44 ar  
    93    44    45 ar  
    94    44    88 1   
    95    45    89 1   
@<TRIPOS>SUBSTRUCTURE
     1 6XQ         1 TEMP              0 ****  ****    0 ROOT
