@<TRIPOS>MOLECULE
6XQ
   90    95     1     0     0
SMALL
abcg2


@<TRIPOS>ATOM
      1 O1          20.1460    30.9540    19.0830 o          1 6XQ      -0.740000
      2 C7          19.4540    31.6600    23.7740 ca         1 6XQ      -0.014300
      3 O2          21.8880    30.4130    20.3860 o          1 6XQ      -0.740000
      4 C6          20.6770    30.7050    20.1970 c          1 6XQ       0.708000
      5 C1          21.1810    33.8430    21.1300 cx         1 6XQ      -0.138400
      6 N1          19.2610    31.4000    32.4210 nh         1 6XQ      -0.784400
      7 C5          19.7720    30.7440    21.4420 c3         1 6XQ      -0.189400
      8 C4          20.2050    31.8100    22.4670 c3         1 6XQ       0.013600
      9 C3          20.0590    33.2130    21.9050 cx         1 6XQ      -0.087700
     10 C2          20.8400    34.3440    22.5120 cx         1 6XQ      -0.138400
     11 O3          16.3140    32.4130    33.4270 o          1 6XQ      -0.598100
     12 N2          17.4840    34.3550    33.5990 n          1 6XQ      -0.412300
     13 C31         16.3920    35.1380    33.0070 c3         1 6XQ       0.113000
     14 C32         16.5840    35.5330    31.5270 c3         1 6XQ      -0.063000
     15 C35         15.2630    36.1680    31.0720 c3         1 6XQ      -0.087767
     16 C34         17.7150    36.5580    31.3630 c3         1 6XQ      -0.087767
     17 C33         16.8870    34.2970    30.6750 c3         1 6XQ      -0.087767
     18 C25         18.6590    35.0400    34.0360 ca         1 6XQ       0.483900
     19 N3          19.8090    34.6880    33.4770 nb         1 6XQ      -0.675000
     20 C29         20.9410    35.2790    33.8820 ca         1 6XQ       0.373300
     21 C30         22.2110    34.8020    33.2420 c3         1 6XQ      -0.143400
     22 C28         20.9320    36.2850    34.8470 ca         1 6XQ      -0.174000
     23 C27         19.7200    36.6680    35.4080 ca         1 6XQ      -0.064000
     24 C26         18.5550    36.0330    35.0050 ca         1 6XQ      -0.178000
     25 C23         18.4390    32.3120    34.5140 ca         1 6XQ      -0.172600
     26 C22         18.5700    32.4930    35.8890 ca         1 6XQ      -0.043000
     27 C21         19.6420    31.9570    36.5840 ca         1 6XQ      -0.169000
     28 C20         20.6100    31.2270    35.8920 ca         1 6XQ       0.160100
     29 O4          21.6480    30.7510    36.6320 os         1 6XQ      -0.353100
     30 C36         22.6860    30.0370    35.9620 c3         1 6XQ       0.149900
     31 C19         20.4770    31.0190    34.5200 ca         1 6XQ      -0.244000
     32 C18         19.3900    31.5540    33.8220 ca         1 6XQ       0.357000
     33 C17         18.3050    30.3700    31.9940 c6         1 6XQ       0.189300
     34 C16         17.9390    30.5510    30.5270 c6         1 6XQ      -0.072400
     35 C37         20.5010    31.3230    31.6550 c6         1 6XQ       0.189300
     36 C38         20.2120    31.5830    30.1840 c6         1 6XQ      -0.072400
     37 C15         19.1840    30.5750    29.6360 c6         1 6XQ       0.006500
     38 C14         18.8460    30.8720    28.2190 cc         1 6XQ       0.010900
     39 O5          19.9090    30.8290    27.3300 os         1 6XQ      -0.200200
     40 C9          19.4140    31.1730    26.1000 ca         1 6XQ       0.066100
     41 C8          20.1400    31.2800    24.9270 ca         1 6XQ      -0.118000
     42 C13         17.7020    31.2230    27.5820 cd         1 6XQ      -0.218200
     43 C10         18.0400    31.4250    26.1930 ca         1 6XQ      -0.132800
     44 C11         17.3560    31.7980    25.0320 ca         1 6XQ      -0.076000
     45 C12         18.0690    31.9090    23.8460 ca         1 6XQ      -0.122000
     46 H2          22.0880    33.2660    21.0130 hc         1 6XQ       0.066200
     47 H3          20.9310    34.4680    20.2830 hc         1 6XQ       0.066200
     48 H4          18.7390    30.9220    21.1410 hc         1 6XQ       0.025700
     49 H5          19.8170    29.7620    21.9230 hc         1 6XQ       0.025700
     50 H6          21.2640    31.6450    22.6790 hc         1 6XQ       0.068700
     51 H7          19.0580    33.4570    21.5660 hc         1 6XQ       0.065700
     52 H8          21.5210    34.0980    23.3170 hc         1 6XQ       0.066200
     53 H9          20.3620    35.3110    22.6050 hc         1 6XQ       0.066200
     54 H10         16.2590    36.0410    33.6040 h1         1 6XQ       0.055200
     55 H11         15.4920    34.5350    33.1040 h1         1 6XQ       0.055200
     56 H12         15.0220    37.0490    31.6730 hc         1 6XQ       0.038144
     57 H13         15.3340    36.4830    30.0280 hc         1 6XQ       0.038144
     58 H14         14.4370    35.4590    31.1580 hc         1 6XQ       0.038144
     59 H15         17.5580    37.4230    32.0110 hc         1 6XQ       0.038144
     60 H16         18.6870    36.1260    31.6000 hc         1 6XQ       0.038144
     61 H17         17.7490    36.9100    30.3290 hc         1 6XQ       0.038144
     62 H18         16.0770    33.5690    30.7330 hc         1 6XQ       0.038144
     63 H19         17.0170    34.5810    29.6280 hc         1 6XQ       0.038144
     64 H20         17.8040    33.8090    31.0080 hc         1 6XQ       0.038144
     65 H21         22.1400    34.8730    32.1550 hc         1 6XQ       0.053033
     66 H22         23.0690    35.3830    33.5800 hc         1 6XQ       0.053033
     67 H23         22.3800    33.7510    33.4880 hc         1 6XQ       0.053033
     68 H24         21.8580    36.7550    35.1500 ha         1 6XQ       0.122000
     69 H25         19.6850    37.4420    36.1630 ha         1 6XQ       0.117000
     70 H26         17.5980    36.2820    35.4410 ha         1 6XQ       0.127000
     71 H27         17.8450    33.0990    36.4170 ha         1 6XQ       0.116000
     72 H28         19.7530    32.1140    37.6490 ha         1 6XQ       0.126000
     73 H29         23.4110    29.7780    36.7280 h1         1 6XQ       0.041700
     74 H30         22.3000    29.1270    35.4970 h1         1 6XQ       0.041700
     75 H31         23.1620    30.6600    35.2010 h1         1 6XQ       0.041700
     76 H32         21.2130    30.4450    33.9810 ha         1 6XQ       0.121000
     77 H33         17.4140    30.4490    32.6100 h1         1 6XQ       0.038200
     78 H34         18.7410    29.3690    32.1510 h1         1 6XQ       0.038200
     79 H35         17.3940    31.4890    30.4150 hc         1 6XQ       0.059450
     80 H36         17.2710    29.7420    30.2200 hc         1 6XQ       0.059450
     81 H37         20.9850    30.3370    31.7590 h1         1 6XQ       0.038200
     82 H38         21.1930    32.0730    32.0370 h1         1 6XQ       0.038200
     83 H39         21.1400    31.5160    29.6130 hc         1 6XQ       0.059450
     84 H40         19.8200    32.5960    30.0660 hc         1 6XQ       0.059450
     85 H41         19.6500    29.5810    29.6700 hc         1 6XQ       0.057700
     86 H42         21.2050    31.0830    24.9050 ha         1 6XQ       0.131000
     87 H43         16.7330    31.3340    28.0390 ha         1 6XQ       0.201000
     88 H44         16.2930    32.0020    25.0550 ha         1 6XQ       0.105000
     89 H45         17.5440    32.2030    22.9460 ha         1 6XQ       0.120000
     90 C24         17.3290    33.0090    33.7840 c          1 6XQ       0.654700
@<TRIPOS>BOND
     1     1     4 1   
     2     2     8 1   
     3     2    41 ar  
     4     2    45 ar  
     5     3     4 1   
     6     4     7 1   
     7     5     9 1   
     8     5    10 1   
     9     5    46 1   
    10     5    47 1   
    11     6    32 1   
    12     6    33 1   
    13     6    35 1   
    14     7     8 1   
    15     7    48 1   
    16     7    49 1   
    17     8     9 1   
    18     8    50 1   
    19     9    10 1   
    20     9    51 1   
    21    10    52 1   
    22    10    53 1   
    23    11    90 2   
    24    12    13 1   
    25    12    18 1   
    26    12    90 1   
    27    13    14 1   
    28    13    54 1   
    29    13    55 1   
    30    14    15 1   
    31    14    16 1   
    32    14    17 1   
    33    15    56 1   
    34    15    57 1   
    35    15    58 1   
    36    16    59 1   
    37    16    60 1   
    38    16    61 1   
    39    17    62 1   
    40    17    63 1   
    41    17    64 1   
    42    18    19 ar  
    43    18    24 ar  
    44    19    20 ar  
    45    20    21 1   
    46    20    22 ar  
    47    21    65 1   
    48    21    66 1   
    49    21    67 1   
    50    22    23 ar  
    51    22    68 1   
    52    23    24 ar  
    53    23    69 1   
    54    24    70 1   
    55    25    26 ar  
    56    25    32 ar  
    57    25    90 1   
    58    26    27 ar  
    59    26    71 1   
    60    27    28 ar  
    61    27    72 1   
    62    28    29 1   
    63    28    31 ar  
    64    29    30 1   
    65    30    73 1   
    66    30    74 1   
    67    30    75 1   
    68    31    32 ar  
    69    31    76 1   
    70    33    34 1   
    71    33    77 1   
    72    33    78 1   
    73    34    37 1   
    74    34    79 1   
    75    34    80 1   
    76    35    36 1   
    77    35    81 1   
    78    35    82 1   
    79    36    37 1   
    80    36    83 1   
    81    36    84 1   
    82    37    38 1   
    83    37    85 1   
    84    38    39 1   
    85    38    42 2   
    86    39    40 1   
    87    40    41 ar  
    88    40    43 ar  
    89    41    86 1   
    90    42    43 1   
    91    42    87 1   
    92    43    44 ar  
    93    44    45 ar  
    94    44    88 1   
    95    45    89 1   
@<TRIPOS>SUBSTRUCTURE
     1 6XQ         1 TEMP              0 ****  ****    0 ROOT
