@<TRIPOS>MOLECULE
6XR
   29    31     1     0     0
SMALL
No Charge or Current Charge


@<TRIPOS>ATOM
      1 C3          -3.7500     1.5870     0.4340 c5         1 6XR       0.062600
      2 C5          -1.8960    -0.0600     0.2310 ce         1 6XR       0.391200
      3 C1          -4.8600    -0.2080    -0.9910 c          1 6XR       0.736000
      4 C2          -4.1830     0.0990     0.3970 c5         1 6XR      -0.049500
      5 C12          3.0160     0.2280     0.1110 ca         1 6XR      -0.143500
      6 C13          3.1050     1.6400     0.1460 ca         1 6XR      -0.034000
      7 S4          -2.1530     1.5720    -0.4780 ss         1 6XR      -0.417200
      8 N6          -2.9340    -0.6950     0.6960 n2         1 6XR      -0.508900
      9 C7          -0.5150    -0.5440     0.4980 cc         1 6XR       0.292700
     10 C8          -0.1870    -1.6900     1.1890 cd         1 6XR      -0.241000
     11 S9           1.5480    -1.9030     1.3060 ss         1 6XR      -0.015400
     12 C10          1.7120    -0.4210     0.3630 cd         1 6XR       0.473900
     13 N11          0.5720     0.1840     0.0490 nc         1 6XR      -0.629000
     14 C14          4.3220     2.2900    -0.1180 ca         1 6XR      -0.156000
     15 C15          5.4640     1.5430    -0.4410 ca         1 6XR      -0.071000
     16 C16          5.3810     0.1440    -0.5130 ca         1 6XR      -0.214000
     17 C17          4.1670    -0.5120    -0.2490 ca         1 6XR       0.141100
     18 O18          4.1250    -1.8670    -0.3810 oh         1 6XR      -0.533100
     19 O19         -4.3440    -1.0020    -1.7690 o          1 6XR      -0.701500
     20 O20         -5.9440     0.3070    -1.2310 o          1 6XR      -0.701500
     21 H3          -4.4750     2.2670    -0.0340 h1         1 6XR       0.064700
     22 H31         -3.5750     1.9200     1.4660 h1         1 6XR       0.064700
     23 H2          -4.9420    -0.0960     1.1650 h1         1 6XR       0.071700
     24 H13          2.2290     2.2380     0.3940 ha         1 6XR       0.153000
     25 H81         -0.8650    -2.4080     1.6350 h4         1 6XR       0.177000
     26 H14          4.3780     3.3750    -0.0730 ha         1 6XR       0.115000
     27 H15          6.4060     2.0480    -0.6480 ha         1 6XR       0.104000
     28 H16          6.2670    -0.4250    -0.7850 ha         1 6XR       0.105000
     29 HO18         5.0150    -2.1780    -0.6520 ho         1 6XR       0.462000
@<TRIPOS>BOND
     1     1     4 1   
     2     1     7 1   
     3     1    21 1   
     4     1    22 1   
     5     2     7 1   
     6     2     8 2   
     7     2     9 1   
     8     3     4 1   
     9     3    19 1   
    10     3    20 1   
    11     4     8 1   
    12     4    23 1   
    13     5     6 ar  
    14     5    12 1   
    15     5    17 ar  
    16     6    14 ar  
    17     6    24 1   
    18     9    10 2   
    19     9    13 1   
    20    10    11 1   
    21    10    25 1   
    22    11    12 1   
    23    12    13 2   
    24    14    15 ar  
    25    14    26 1   
    26    15    16 ar  
    27    15    27 1   
    28    16    17 ar  
    29    16    28 1   
    30    17    18 1   
    31    18    29 1   
@<TRIPOS>SUBSTRUCTURE
     1 6XR         1 TEMP              0 ****  ****    0 ROOT
