@<TRIPOS>MOLECULE
6XR
   29    31     1     0     0
SMALL
abcg2


@<TRIPOS>ATOM
      1 C3          -3.7210     1.6390     0.6190 c5         1 6XR       0.062600
      2 C5          -1.8420    -0.0010     0.4450 ce         1 6XR       0.391200
      3 C1          -4.7620    -0.1810    -0.8590 c          1 6XR       0.736000
      4 C2          -4.0880     0.1490     0.5100 c5         1 6XR      -0.049500
      5 C12          2.9740     0.2270    -0.0290 ca         1 6XR      -0.143500
      6 C13          3.0030     1.6080    -0.2520 ca         1 6XR      -0.034000
      7 S4          -1.9970     1.7220     0.0510 ss         1 6XR      -0.417200
      8 N6          -2.8950    -0.6430     0.7100 n2         1 6XR      -0.508900
      9 C7          -0.5020    -0.5800     0.4240 cc         1 6XR       0.292700
     10 C8          -0.2030    -1.8950     0.6190 cd         1 6XR      -0.241000
     11 S9           1.4800    -2.1260     0.5050 ss         1 6XR      -0.015400
     12 C10          1.6870    -0.4270     0.1930 cd         1 6XR       0.473900
     13 N11          0.5640     0.2270     0.1840 nc         1 6XR      -0.629000
     14 C14          4.1930     2.2770    -0.4610 ca         1 6XR      -0.156000
     15 C15          5.3900     1.5680    -0.4510 ca         1 6XR      -0.071000
     16 C16          5.3890     0.2020    -0.2340 ca         1 6XR      -0.214000
     17 C17          4.1890    -0.4710    -0.0230 ca         1 6XR       0.141100
     18 O18          4.1420    -1.7960     0.1940 oh         1 6XR      -0.533100
     19 O19         -4.2860    -1.1070    -1.5300 o          1 6XR      -0.701500
     20 O20         -5.7470     0.5310    -1.1320 o          1 6XR      -0.701500
     21 H3          -4.3590     2.2660     0.0020 h1         1 6XR       0.064700
     22 H31         -3.7650     1.9990     1.6480 h1         1 6XR       0.064700
     23 H2          -4.8170    -0.0920     1.2900 h1         1 6XR       0.071700
     24 H13          2.0690     2.1530    -0.2580 ha         1 6XR       0.153000
     25 H81         -0.8810    -2.7110     0.8130 h4         1 6XR       0.177000
     26 H14          4.1900     3.3460    -0.6280 ha         1 6XR       0.115000
     27 H15          6.3300     2.0800    -0.6150 ha         1 6XR       0.104000
     28 H16          6.3220    -0.3500    -0.2250 ha         1 6XR       0.105000
     29 HO18         5.0280    -2.1790     0.2080 ho         1 6XR       0.462000
@<TRIPOS>BOND
     1     1     4 1   
     2     1     7 1   
     3     1    21 1   
     4     1    22 1   
     5     2     7 1   
     6     2     8 2   
     7     2     9 1   
     8     3     4 1   
     9     3    19 1   
    10     3    20 1   
    11     4     8 1   
    12     4    23 1   
    13     5     6 ar  
    14     5    12 1   
    15     5    17 ar  
    16     6    14 ar  
    17     6    24 1   
    18     9    10 2   
    19     9    13 1   
    20    10    11 1   
    21    10    25 1   
    22    11    12 1   
    23    12    13 2   
    24    14    15 ar  
    25    14    26 1   
    26    15    16 ar  
    27    15    27 1   
    28    16    17 ar  
    29    16    28 1   
    30    17    18 1   
    31    18    29 1   
@<TRIPOS>SUBSTRUCTURE
     1 6XR         1 TEMP              0 ****  ****    0 ROOT
