@<TRIPOS>MOLECULE
6XS
   67    70     1     0     0
SMALL
abcg2


@<TRIPOS>ATOM
      1 C33         -6.2270    -0.6280     0.6040 cc         1 6XS      -0.050000
      2 C32         -7.4200     0.1110     0.4310 cc         1 6XS      -0.134000
      3 C31         -7.3370     0.9500    -0.6380 cd         1 6XS      -0.012000
      4 CL3         -8.5390     2.0170    -1.2000 cl         1 6XS      -0.130000
      5 S30         -5.8270     0.8540    -1.4420 ss         1 6XS       0.248000
      6 C29         -5.2700    -0.3420    -0.3280 cd         1 6XS      -0.292600
      7 C28         -3.9380    -0.9780    -0.3790 c          1 6XS       0.651700
      8 O39         -3.6200    -1.8090     0.4610 o          1 6XS      -0.608100
      9 N27         -3.1180    -0.6140    -1.3810 ns         1 6XS      -0.493900
     10 C26         -1.8000    -1.1690    -1.5160 c3         1 6XS       0.119000
     11 C17         -0.7910    -0.5520    -0.5380 c3         1 6XS       0.104500
     12 C18          0.5600    -1.2560    -0.7160 c          1 6XS       0.573100
     13 O38          1.3250    -0.8310    -1.5710 o          1 6XS      -0.622100
     14 N19          0.8290    -2.3190     0.0590 n          1 6XS      -0.393800
     15 C20          2.0660    -3.0660    -0.1040 c6         1 6XS       0.088000
     16 C21          1.7640    -4.4820    -0.5630 c6         1 6XS       0.143800
     17 N22          0.8700    -5.1400     0.3670 n3         1 6XS      -0.717600
     18 C25          0.6250    -6.5150    -0.0050 c3         1 6XS       0.153100
     19 C23         -0.3630    -4.3960     0.5130 c6         1 6XS       0.143800
     20 C24         -0.0850    -2.9770     0.9790 c6         1 6XS       0.088000
     21 N16         -0.6810     0.8720    -0.7990 n7         1 6XS      -0.859300
     22 S15         -0.2470     1.8590     0.4430 sy         1 6XS       1.155600
     23 O36         -0.1480     3.2020    -0.0870 o          1 6XS      -0.520500
     24 O37         -1.1500     1.5840     1.5450 o          1 6XS      -0.520500
     25 C9           1.3650     1.2820     0.9590 ca         1 6XS      -0.270500
     26 C8           2.4900     1.4160     0.1520 ca         1 6XS       0.204000
     27 CL4          2.4410     2.2230    -1.3610 cl         1 6XS      -0.144000
     28 C10          1.4370     0.5980     2.1650 ca         1 6XS      -0.057000
     29 C11          2.6460     0.0540     2.5410 ca         1 6XS       0.158000
     30 F13          2.7250    -0.6050     3.7000 f          1 6XS      -0.168000
     31 C12          3.7750     0.1660     1.7570 ca         1 6XS      -0.094000
     32 C7           3.6970     0.8500     0.5540 ca         1 6XS      -0.028000
     33 N3           4.8250     0.9170    -0.2890 n          1 6XS      -0.255400
     34 C2           5.0060    -0.2220    -1.1930 c6         1 6XS       0.115000
     35 C1           5.9860     0.0930    -2.3030 c6         1 6XS      -0.091400
     36 C6           7.2330     0.7310    -1.7170 c6         1 6XS      -0.074400
     37 C5           6.8590     2.0500    -1.0590 c6         1 6XS      -0.154400
     38 C4           5.6510     1.9870    -0.1580 c          1 6XS       0.575000
     39 O35          5.4010     2.8740     0.6430 o          1 6XS      -0.544000
     40 H33         -6.0820    -1.3520     1.3930 ha         1 6XS       0.158000
     41 H32         -8.2920     0.0250     1.0620 ha         1 6XS       0.152000
     42 H27         -3.3780     0.1080    -2.0330 hn         1 6XS       0.326500
     43 H261        -1.8350    -2.2500    -1.3670 h1         1 6XS       0.065200
     44 H262        -1.4680    -1.0000    -2.5400 h1         1 6XS       0.065200
     45 H17         -1.1780    -0.6650     0.4720 h1         1 6XS       0.111700
     46 H16         -0.2140     1.1070    -1.6710 hn         1 6XS       0.502000
     47 H201         2.7120    -2.5640    -0.8180 h1         1 6XS       0.070200
     48 H202         2.5840    -3.0900     0.8600 h1         1 6XS       0.070200
     49 H241         0.3770    -2.9990     1.9700 h1         1 6XS       0.070200
     50 H242        -1.0280    -2.4460     1.0720 h1         1 6XS       0.070200
     51 H211         1.3450    -4.4450    -1.5840 h1         1 6XS       0.043700
     52 H212         2.7000    -5.0430    -0.6190 h1         1 6XS       0.043700
     53 H251         1.5660    -7.0680    -0.0300 h1         1 6XS       0.034367
     54 H252        -0.0220    -6.9910     0.7330 h1         1 6XS       0.034367
     55 H253         0.1470    -6.6210    -0.9910 h1         1 6XS       0.034367
     56 H231        -0.9410    -4.3630    -0.4290 h1         1 6XS       0.043700
     57 H232        -0.9940    -4.8880     1.2570 h1         1 6XS       0.043700
     58 H10          0.5710     0.4890     2.8020 ha         1 6XS       0.164000
     59 H12          4.7130    -0.2730     2.0700 ha         1 6XS       0.144000
     60 H21C         5.3640    -1.0800    -0.6160 h1         1 6XS       0.050700
     61 H22C         4.0290    -0.4860    -1.6010 h1         1 6XS       0.050700
     62 H11C         6.2210    -0.8340    -2.8260 hc         1 6XS       0.056200
     63 H12C         5.5270     0.7690    -3.0300 hc         1 6XS       0.056200
     64 H61C         7.6850     0.0570    -0.9840 hc         1 6XS       0.049700
     65 H62C         7.9840     0.9060    -2.4880 hc         1 6XS       0.049700
     66 H51C         7.6830     2.4600    -0.4730 hc         1 6XS       0.075700
     67 H52C         6.6330     2.7970    -1.8270 hc         1 6XS       0.075700
@<TRIPOS>BOND
     1     1     2 1   
     2     1     6 2   
     3     1    40 1   
     4     2     3 2   
     5     2    41 1   
     6     3     4 1   
     7     3     5 1   
     8     5     6 1   
     9     6     7 1   
    10     7     8 2   
    11     7     9 1   
    12     9    10 1   
    13     9    42 1   
    14    10    11 1   
    15    10    43 1   
    16    10    44 1   
    17    11    12 1   
    18    11    21 1   
    19    11    45 1   
    20    12    13 2   
    21    12    14 1   
    22    14    15 1   
    23    14    20 1   
    24    15    16 1   
    25    15    47 1   
    26    15    48 1   
    27    16    17 1   
    28    16    51 1   
    29    16    52 1   
    30    17    18 1   
    31    17    19 1   
    32    18    53 1   
    33    18    54 1   
    34    18    55 1   
    35    19    20 1   
    36    19    56 1   
    37    19    57 1   
    38    20    49 1   
    39    20    50 1   
    40    21    22 1   
    41    21    46 1   
    42    22    23 2   
    43    22    24 2   
    44    22    25 1   
    45    25    26 ar  
    46    25    28 ar  
    47    26    27 1   
    48    26    32 ar  
    49    28    29 ar  
    50    28    58 1   
    51    29    30 1   
    52    29    31 ar  
    53    31    32 ar  
    54    31    59 1   
    55    32    33 1   
    56    33    34 1   
    57    33    38 1   
    58    34    35 1   
    59    34    60 1   
    60    34    61 1   
    61    35    36 1   
    62    35    62 1   
    63    35    63 1   
    64    36    37 1   
    65    36    64 1   
    66    36    65 1   
    67    37    38 1   
    68    37    66 1   
    69    37    67 1   
    70    38    39 2   
@<TRIPOS>SUBSTRUCTURE
     1 6XS         1 TEMP              0 ****  ****    0 ROOT
