@<TRIPOS>MOLECULE
6XS
   67    70     1     0     0
SMALL
No Charge or Current Charge


@<TRIPOS>ATOM
      1 C33         -6.0860    -0.3280     1.3740 cc         1 6XS      -0.050000
      2 C32         -7.2450     0.4870     1.3980 cc         1 6XS      -0.134000
      3 C31         -7.3880     1.2630     0.2790 cd         1 6XS      -0.012000
      4 Cl3         -8.6870     2.3730    -0.0170 cl         1 6XS      -0.130000
      5 S30         -6.0630     1.0050    -0.8720 ss         1 6XS       0.248000
      6 C29         -5.3340    -0.1810     0.2320 cd         1 6XS      -0.292600
      7 C28         -4.0790    -0.9160    -0.0200 c          1 6XS       0.651700
      8 O39         -3.5950    -1.7210     0.7620 o          1 6XS      -0.608100
      9 N27         -3.4930    -0.6180    -1.2250 ns         1 6XS      -0.493900
     10 C26         -2.1900    -1.1340    -1.6600 c3         1 6XS       0.119000
     11 C17         -1.0140    -0.4380    -0.9350 c3         1 6XS       0.104500
     12 C18          0.3200    -1.1710    -1.2920 c          1 6XS       0.573100
     13 O38          0.9340    -0.8530    -2.3050 o          1 6XS      -0.622100
     14 N19          0.8560    -2.1280    -0.3990 n          1 6XS      -0.393800
     15 C20          2.2000    -2.7330    -0.6170 c6         1 6XS       0.088000
     16 C21          2.0930    -4.2210    -1.0440 c6         1 6XS       0.143800
     17 N22          1.3010    -5.0160    -0.0620 n3         1 6XS      -0.717600
     18 C25          1.2370    -6.4520    -0.4110 c3         1 6XS       0.153100
     19 C23         -0.0480    -4.4150     0.1480 c6         1 6XS       0.143800
     20 C24          0.0400    -2.9210     0.5690 c6         1 6XS       0.088000
     21 N16         -1.0050     1.0300    -1.2690 n7         1 6XS      -0.859300
     22 S15         -0.4180     2.1200    -0.1440 sy         1 6XS       1.155600
     23 O36         -0.0180     3.2850    -0.9320 o          1 6XS      -0.520500
     24 O37         -1.4670     2.2200     0.8730 o          1 6XS      -0.520500
     25 C9           1.0260     1.2650     0.5260 ca         1 6XS      -0.270500
     26 C8           2.2840     1.2310    -0.1360 ca         1 6XS       0.204000
     27 Cl4          2.5140     1.9740    -1.7300 cl         1 6XS      -0.144000
     28 C10          0.8820     0.5990     1.7660 ca         1 6XS      -0.057000
     29 C11          1.9650    -0.0740     2.3390 ca         1 6XS       0.158000
     30 F13          1.8200    -0.6810     3.5370 f          1 6XS      -0.168000
     31 C12          3.2020    -0.1090     1.6890 ca         1 6XS      -0.094000
     32 C7           3.3630     0.4870     0.4200 ca         1 6XS      -0.028000
     33 N3           4.6970     0.5860    -0.1270 n          1 6XS      -0.255400
     34 C2           5.5260    -0.6440    -0.1180 c6         1 6XS       0.115000
     35 C1           6.5650    -0.6540    -1.2560 c6         1 6XS      -0.091400
     36 C6           7.4550     0.6040    -1.1690 c6         1 6XS      -0.074400
     37 C5           6.5820     1.8800    -1.2130 c6         1 6XS      -0.154400
     38 C4           5.3520     1.8320    -0.2880 c          1 6XS       0.575000
     39 O35          4.9460     2.8520     0.2550 o          1 6XS      -0.544000
     40 H33         -5.8330    -0.9990     2.1930 ha         1 6XS       0.158000
     41 H32         -7.9420     0.4870     2.2310 ha         1 6XS       0.152000
     42 H27         -3.9410     0.0890    -1.7910 hn         1 6XS       0.326500
     43 H261        -2.1560    -2.2150    -1.4680 h1         1 6XS       0.065200
     44 H262        -2.0930    -0.9840    -2.7440 h1         1 6XS       0.065200
     45 H17         -1.1830    -0.5610     0.1420 h1         1 6XS       0.111700
     46 H16         -0.3630     1.1850    -2.0500 hn         1 6XS       0.502000
     47 H201         2.7690    -2.1740    -1.3730 h1         1 6XS       0.070200
     48 H202         2.7700    -2.6740     0.3210 h1         1 6XS       0.070200
     49 H241         0.5090    -2.8570     1.5610 h1         1 6XS       0.070200
     50 H242        -0.9790    -2.5320     0.6710 h1         1 6XS       0.070200
     51 H211         1.6260    -4.2690    -2.0390 h1         1 6XS       0.043700
     52 H212         3.1080    -4.6330    -1.1420 h1         1 6XS       0.043700
     53 H251         2.2470    -6.8750    -0.4980 h1         1 6XS       0.034367
     54 H252         0.7000    -7.0150     0.3630 h1         1 6XS       0.034367
     55 H253         0.7180    -6.6000    -1.3670 h1         1 6XS       0.034367
     56 H231        -0.6410    -4.4840    -0.7750 h1         1 6XS       0.043700
     57 H232        -0.5950    -4.9680     0.9260 h1         1 6XS       0.043700
     58 H10         -0.0660     0.6090     2.3020 ha         1 6XS       0.164000
     59 H12          4.0360    -0.6020     2.1810 ha         1 6XS       0.144000
     60 H21C         6.0440    -0.7170     0.8490 h1         1 6XS       0.050700
     61 H22C         4.8780    -1.5260    -0.2140 h1         1 6XS       0.050700
     62 H11C         7.1830    -1.5600    -1.1900 hc         1 6XS       0.056200
     63 H12C         6.0530    -0.6900    -2.2280 hc         1 6XS       0.056200
     64 H61C         8.0340     0.5840    -0.2350 hc         1 6XS       0.049700
     65 H62C         8.1840     0.6130    -1.9910 hc         1 6XS       0.049700
     66 H51C         7.1530     2.8020    -1.0440 hc         1 6XS       0.075700
     67 H52C         6.1720     1.9330    -2.2300 hc         1 6XS       0.075700
@<TRIPOS>BOND
     1     1     2 1   
     2     1     6 2   
     3     1    40 1   
     4     2     3 2   
     5     2    41 1   
     6     3     4 1   
     7     3     5 1   
     8     5     6 1   
     9     6     7 1   
    10     7     8 2   
    11     7     9 1   
    12     9    10 1   
    13     9    42 1   
    14    10    11 1   
    15    10    43 1   
    16    10    44 1   
    17    11    12 1   
    18    11    21 1   
    19    11    45 1   
    20    12    13 2   
    21    12    14 1   
    22    14    15 1   
    23    14    20 1   
    24    15    16 1   
    25    15    47 1   
    26    15    48 1   
    27    16    17 1   
    28    16    51 1   
    29    16    52 1   
    30    17    18 1   
    31    17    19 1   
    32    18    53 1   
    33    18    54 1   
    34    18    55 1   
    35    19    20 1   
    36    19    56 1   
    37    19    57 1   
    38    20    49 1   
    39    20    50 1   
    40    21    22 1   
    41    21    46 1   
    42    22    23 2   
    43    22    24 2   
    44    22    25 1   
    45    25    26 ar  
    46    25    28 ar  
    47    26    27 1   
    48    26    32 ar  
    49    28    29 ar  
    50    28    58 1   
    51    29    30 1   
    52    29    31 ar  
    53    31    32 ar  
    54    31    59 1   
    55    32    33 1   
    56    33    34 1   
    57    33    38 1   
    58    34    35 1   
    59    34    60 1   
    60    34    61 1   
    61    35    36 1   
    62    35    62 1   
    63    35    63 1   
    64    36    37 1   
    65    36    64 1   
    66    36    65 1   
    67    37    38 1   
    68    37    66 1   
    69    37    67 1   
    70    38    39 2   
@<TRIPOS>SUBSTRUCTURE
     1 6XS         1 TEMP              0 ****  ****    0 ROOT
