@<TRIPOS>MOLECULE
6XT
   45    48     1     0     0
SMALL
abcg2


@<TRIPOS>ATOM
      1 C1           5.6480    -1.6790    -0.4390 c3         1 6XT      -0.038800
      2 C2           4.1570    -1.5850    -0.2920 ca         1 6XT      -0.152300
      3 C3           3.3620    -2.7250    -0.3300 ca         1 6XT      -0.061000
      4 C7           3.5100    -0.3570    -0.1090 ca         1 6XT       0.002000
      5 C9           4.1250     1.9100     0.6830 c          1 6XT       0.605100
      6 C11          5.2250     2.9340     0.5570 c3         1 6XT      -0.182100
      7 C13         -0.9610    -0.4630     0.0800 cc         1 6XT       0.686900
      8 C14         -2.3130    -0.8520     0.2750 cc         1 6XT      -0.385000
      9 C15         -3.2960     0.1090     0.2370 cd         1 6XT       0.428000
     10 N18         -0.5810     0.7800    -0.1290 nd         1 6XT      -0.758000
     11 C19         -1.5300     3.0810    -0.3460 cc         1 6XT      -0.418600
     12 C20         -2.8720     3.4670    -0.2650 cc         1 6XT       0.407500
     13 C24         -6.4800    -1.7140     0.1270 cx         1 6XT      -0.129400
     14 C4           1.9880    -2.6660    -0.1930 ca         1 6XT      -0.193000
     15 C5           1.3510    -1.4340    -0.0230 ca         1 6XT       0.331000
     16 C6           2.1250    -0.2750     0.0150 ca         1 6XT      -0.136000
     17 N8           4.3020     0.8030    -0.0870 ns         1 6XT      -0.160000
     18 O10          3.1820     2.0650     1.4370 o          1 6XT      -0.570100
     19 N12         -0.0330    -1.4620     0.1160 nu         1 6XT      -0.935900
     20 N16         -2.8770     1.3900     0.0180 na         1 6XT       0.044900
     21 C17         -1.5480     1.7060    -0.1560 cd         1 6XT       0.462500
     22 N21         -3.6930     2.4540    -0.0450 nd         1 6XT      -0.626100
     23 N22         -4.6110    -0.0840     0.3870 nu         1 6XT      -0.934200
     24 C23         -5.1550    -1.3580     0.7130 cx         1 6XT       0.155500
     25 C25         -5.2440    -2.3980    -0.3630 cx         1 6XT      -0.129400
     26 H1           6.1710    -1.2250     0.4060 hc         1 6XT       0.037367
     27 H2           5.9630    -2.7190    -0.5010 hc         1 6XT       0.037367
     28 H3           6.0070    -1.1840    -1.3450 hc         1 6XT       0.037367
     29 H4           3.8330    -3.6900    -0.4690 ha         1 6XT       0.110000
     30 H5           5.8740     2.8670     1.4320 hc         1 6XT       0.061033
     31 H6           5.8410     2.8080    -0.3310 hc         1 6XT       0.061033
     32 H7           4.7950     3.9340     0.5450 hc         1 6XT       0.061033
     33 H8          -2.5720    -1.8850     0.4550 ha         1 6XT       0.135000
     34 H9          -0.6660     3.7010    -0.5160 ha         1 6XT       0.227000
     35 H10         -3.2740     4.4650    -0.3610 h4         1 6XT       0.040800
     36 H12         -6.9490    -0.9890    -0.5270 hc         1 6XT       0.082450
     37 H13          1.4050    -3.5790    -0.2230 ha         1 6XT       0.108000
     38 H14          1.6440     0.6800     0.1270 ha         1 6XT       0.177000
     39 H15          5.1600     0.7640    -0.6150 hn         1 6XT       0.149000
     40 H16         -0.4190    -2.3880     0.2130 hn         1 6XT       0.494000
     41 H17         -5.1940     0.7360     0.4670 hn         1 6XT       0.532000
     42 H18         -4.9440    -1.7070     1.7210 h1         1 6XT       0.086700
     43 H19         -5.0700    -3.4280    -0.0810 hc         1 6XT       0.082450
     44 H20         -4.8750    -2.1270    -1.3450 hc         1 6XT       0.082450
     45 H11         -7.1680    -2.2670     0.7530 hc         1 6XT       0.082450
@<TRIPOS>BOND
     1     1     2 1   
     2     1    26 1   
     3     1    27 1   
     4     1    28 1   
     5     2     3 ar  
     6     2     4 ar  
     7     3    14 ar  
     8     3    29 1   
     9     4    16 ar  
    10     4    17 1   
    11     5     6 1   
    12     5    17 1   
    13     5    18 2   
    14     6    30 1   
    15     6    31 1   
    16     6    32 1   
    17     7     8 1   
    18     7    10 2   
    19     7    19 1   
    20     8     9 2   
    21     8    33 1   
    22     9    20 1   
    23     9    23 1   
    24    10    21 1   
    25    11    12 1   
    26    11    21 2   
    27    11    34 1   
    28    12    22 2   
    29    12    35 1   
    30    13    24 1   
    31    13    25 1   
    32    13    36 1   
    33    13    45 1   
    34    14    15 ar  
    35    14    37 1   
    36    15    16 ar  
    37    15    19 1   
    38    16    38 1   
    39    17    39 1   
    40    19    40 1   
    41    20    21 1   
    42    20    22 1   
    43    23    24 1   
    44    23    41 1   
    45    24    25 1   
    46    24    42 1   
    47    25    43 1   
    48    25    44 1   
@<TRIPOS>SUBSTRUCTURE
     1 6XT         1 TEMP              0 ****  ****    0 ROOT
