@<TRIPOS>MOLECULE
6XT
   45    48     1     0     0
SMALL
No Charge or Current Charge


@<TRIPOS>ATOM
      1 C1           5.6460    -1.5880    -0.7440 c3         1 6XT      -0.038800
      2 C2           4.1440    -1.4670    -0.4910 ca         1 6XT      -0.152300
      3 C3           3.3030    -2.5430    -0.8330 ca         1 6XT      -0.061000
      4 C7           3.5920    -0.3000     0.0880 ca         1 6XT       0.002000
      5 C9           4.2880     1.9360     1.1580 c          1 6XT       0.605100
      6 C11          5.5290     2.8200     1.2330 c3         1 6XT      -0.182100
      7 C13         -0.9640    -0.3190    -0.0420 cc         1 6XT       0.686900
      8 C14         -2.2910    -0.7260     0.3090 cc         1 6XT      -0.385000
      9 C15         -3.3600     0.1290     0.1530 cd         1 6XT       0.428000
     10 N18         -0.5750     0.8360    -0.5430 nd         1 6XT      -0.758000
     11 C19         -1.6720     2.8760    -1.1410 cc         1 6XT      -0.418600
     12 C20         -3.0190     3.3200    -1.0990 cc         1 6XT       0.407500
     13 C24         -6.5770    -1.7900     0.6670 cx         1 6XT      -0.129400
     14 C4           1.9200    -2.4620    -0.6120 ca         1 6XT      -0.193000
     15 C5           1.3590    -1.3020    -0.0640 ca         1 6XT       0.331000
     16 C6           2.1960    -0.2320     0.2940 ca         1 6XT      -0.136000
     17 N8           4.4710     0.7690     0.4280 ns         1 6XT      -0.160000
     18 O10          3.2440     2.2530     1.7140 o          1 6XT      -0.570100
     19 N12         -0.0170    -1.2660     0.1520 nu         1 6XT      -0.935900
     20 N16         -3.0130     1.3770    -0.3670 na         1 6XT       0.044900
     21 C17         -1.6940     1.6170    -0.6620 cd         1 6XT       0.462500
     22 N21         -3.8920     2.4290    -0.6280 nd         1 6XT      -0.626100
     23 N22         -4.6620    -0.1730     0.4630 nu         1 6XT      -0.934200
     24 C23         -5.1660    -1.3950     1.0230 cx         1 6XT       0.155500
     25 C25         -5.4110    -2.5420     0.0750 cx         1 6XT      -0.129400
     26 H1           6.2140    -1.4850     0.1890 hc         1 6XT       0.037367
     27 H2           5.9100    -2.5580    -1.1810 hc         1 6XT       0.037367
     28 H3           5.9930    -0.8130    -1.4390 hc         1 6XT       0.037367
     29 H4           3.7200    -3.4480    -1.2700 ha         1 6XT       0.110000
     30 H5           6.3650     2.2300     1.6270 hc         1 6XT       0.061033
     31 H6           5.8670     3.0480     0.2150 hc         1 6XT       0.061033
     32 H7           5.3650     3.7310     1.8190 hc         1 6XT       0.061033
     33 H8          -2.4460    -1.7190     0.7070 ha         1 6XT       0.135000
     34 H9          -0.8180     3.4420    -1.4870 ha         1 6XT       0.227000
     35 H10         -3.3890     4.2900    -1.4070 h4         1 6XT       0.040800
     36 H12         -7.1450    -1.1370     0.0090 hc         1 6XT       0.082450
     37 H13          1.2850    -3.3010    -0.8820 ha         1 6XT       0.108000
     38 H14          1.7390     0.6460     0.7300 ha         1 6XT       0.177000
     39 H15          5.4070     0.6550     0.0640 hn         1 6XT       0.149000
     40 H16         -0.4440    -2.1810     0.2490 hn         1 6XT       0.494000
     41 H17         -5.2860     0.6170     0.2750 hn         1 6XT       0.532000
     42 H18         -4.8060    -1.6340     2.0280 h1         1 6XT       0.086700
     43 H19         -5.2140    -3.5460     0.4410 hc         1 6XT       0.082450
     44 H20         -5.1890    -2.3890    -0.9780 hc         1 6XT       0.082450
     45 H11         -7.1660    -2.2890     1.4330 hc         1 6XT       0.082450
@<TRIPOS>BOND
     1     1     2 1   
     2     1    26 1   
     3     1    27 1   
     4     1    28 1   
     5     2     3 ar  
     6     2     4 ar  
     7     3    14 ar  
     8     3    29 1   
     9     4    16 ar  
    10     4    17 1   
    11     5     6 1   
    12     5    17 1   
    13     5    18 2   
    14     6    30 1   
    15     6    31 1   
    16     6    32 1   
    17     7     8 1   
    18     7    10 2   
    19     7    19 1   
    20     8     9 2   
    21     8    33 1   
    22     9    20 1   
    23     9    23 1   
    24    10    21 1   
    25    11    12 1   
    26    11    21 2   
    27    11    34 1   
    28    12    22 2   
    29    12    35 1   
    30    13    24 1   
    31    13    25 1   
    32    13    36 1   
    33    13    45 1   
    34    14    15 ar  
    35    14    37 1   
    36    15    16 ar  
    37    15    19 1   
    38    16    38 1   
    39    17    39 1   
    40    19    40 1   
    41    20    21 1   
    42    20    22 1   
    43    23    24 1   
    44    23    41 1   
    45    24    25 1   
    46    24    42 1   
    47    25    43 1   
    48    25    44 1   
@<TRIPOS>SUBSTRUCTURE
     1 6XT         1 TEMP              0 ****  ****    0 ROOT
