@<TRIPOS>MOLECULE
6XU
   54    57     1     0     0
SMALL
No Charge or Current Charge


@<TRIPOS>ATOM
      1 C01          1.6220     0.0770    -2.9740 c3         1 6XU      -0.086100
      2 C02          1.6940    -0.1560    -1.4330 c6         1 6XU       0.294700
      3 C03          0.5480    -1.1310    -1.0380 ce         1 6XU      -0.367400
      4 C04         -0.5840    -0.6480    -0.4760 c2         1 6XU       0.228800
      5 N05         -0.6550     0.7080    -0.2880 nu         1 6XU      -0.758200
      6 C06          0.4430     1.5450    -0.2450 ce         1 6XU       0.591200
      7 N07          1.5350     1.1940    -0.8440 n2         1 6XU      -0.694900
      8 C08          0.3930     2.7060     0.6890 cc         1 6XU       0.380100
      9 N09         -0.6830     3.0250     1.4200 nd         1 6XU      -0.577000
     10 C10         -0.4210     4.1470     2.1900 cd         1 6XU       0.281900
     11 C11          0.8410     4.6690     2.0400 cc         1 6XU      -0.311000
     12 S12          1.7800     3.7510     0.8980 ss         1 6XU       0.036600
     13 C13         -1.8370    -1.3790     0.0390 c3         1 6XU       0.233000
     14 N14         -2.8810    -0.4450     0.5900 n3         1 6XU      -0.777600
     15 C15         -3.6400    -0.9670     1.7600 c5         1 6XU       0.149800
     16 C16         -4.8580     0.0100     1.8890 c5         1 6XU       0.146000
     17 C17         -4.7920     0.8760     0.5960 c5         1 6XU      -0.109400
     18 C18         -3.9710    -0.0320    -0.3630 c5         1 6XU       0.070500
     19 C19         -3.5710     0.7410    -1.6980 c          1 6XU       0.728000
     20 O20         -3.3560     1.9470    -1.6700 o          1 6XU      -0.709000
     21 O21         -3.5410     0.1120    -2.7490 o          1 6XU      -0.709000
     22 F22         -6.0590    -0.6960     1.9570 f          1 6XU      -0.133500
     23 F23         -4.7650     0.8040     3.0320 f          1 6XU      -0.133500
     24 C24          0.7130    -2.6040    -1.3040 c          1 6XU       0.633300
     25 O25         -0.0960    -3.4520    -0.9530 o          1 6XU      -0.519000
     26 O26          1.8320    -2.9070    -2.0310 os         1 6XU      -0.440100
     27 C27          2.0940    -4.2850    -2.3460 c3         1 6XU       0.154900
     28 C28          3.0710    -0.6600    -0.9190 ca         1 6XU      -0.049300
     29 C29          4.2050    -0.7910    -1.7590 ca         1 6XU      -0.067500
     30 C30          5.4270    -1.2580    -1.2410 ca         1 6XU      -0.162500
     31 C31          5.5310    -1.5950     0.1160 ca         1 6XU       0.151000
     32 C32          4.4220    -1.4660     0.9620 ca         1 6XU      -0.162500
     33 C33          3.2000    -0.9990     0.4470 ca         1 6XU      -0.067500
     34 F34          6.7050    -2.0430     0.6100 f          1 6XU      -0.196000
     35 H1           1.8260    -0.8370    -3.5410 hc         1 6XU       0.039700
     36 H2           0.6250     0.4250    -3.2710 hc         1 6XU       0.039700
     37 H3           2.3390     0.8380    -3.3030 hc         1 6XU       0.039700
     38 H4          -1.4720     1.0010     0.2600 hn         1 6XU       0.613000
     39 H5          -1.1920     4.5390     2.8420 h4         1 6XU       0.042100
     40 H6           1.2760     5.5310     2.5280 h4         1 6XU       0.148000
     41 H7          -2.2620    -1.9970    -0.7630 h1         1 6XU       0.065200
     42 H8          -1.5070    -2.0670     0.8290 h1         1 6XU       0.065200
     43 H10         -3.9900    -1.9930     1.5810 h1         1 6XU       0.057200
     44 H11         -3.0260    -0.9780     2.6700 h1         1 6XU       0.057200
     45 H12         -5.7840     1.1170     0.1980 hc         1 6XU       0.077700
     46 H13         -4.2790     1.8250     0.7900 hc         1 6XU       0.077700
     47 H14         -4.5680    -0.9050    -0.6630 h1         1 6XU       0.030700
     48 H16          3.0220    -4.3730    -2.9240 h1         1 6XU       0.037700
     49 H17          2.2050    -4.8800    -1.4300 h1         1 6XU       0.037700
     50 H18          1.2780    -4.7110    -2.9440 h1         1 6XU       0.037700
     51 H19          4.1560    -0.5410    -2.8150 ha         1 6XU       0.122000
     52 H20          6.2920    -1.3600    -1.8910 ha         1 6XU       0.120500
     53 H21          4.5080    -1.7250     2.0140 ha         1 6XU       0.120500
     54 H22          2.3440    -0.9000     1.1120 ha         1 6XU       0.122000
@<TRIPOS>BOND
     1     1     2 1   
     2     1    35 1   
     3     1    36 1   
     4     1    37 1   
     5     2     3 1   
     6     2     7 1   
     7     2    28 1   
     8     3     4 2   
     9     3    24 1   
    10     4     5 1   
    11     4    13 1   
    12     5     6 1   
    13     5    38 1   
    14     6     7 2   
    15     6     8 1   
    16     8     9 2   
    17     8    12 1   
    18     9    10 1   
    19    10    11 2   
    20    10    39 1   
    21    11    12 1   
    22    11    40 1   
    23    13    14 1   
    24    13    41 1   
    25    13    42 1   
    26    14    15 1   
    27    14    18 1   
    28    15    16 1   
    29    15    43 1   
    30    15    44 1   
    31    16    17 1   
    32    16    22 1   
    33    16    23 1   
    34    17    18 1   
    35    17    45 1   
    36    17    46 1   
    37    18    19 1   
    38    18    47 1   
    39    19    20 1   
    40    19    21 1   
    41    24    25 2   
    42    24    26 1   
    43    26    27 1   
    44    27    48 1   
    45    27    49 1   
    46    27    50 1   
    47    28    29 ar  
    48    28    33 ar  
    49    29    30 ar  
    50    29    51 1   
    51    30    31 ar  
    52    30    52 1   
    53    31    32 ar  
    54    31    34 1   
    55    32    33 ar  
    56    32    53 1   
    57    33    54 1   
@<TRIPOS>SUBSTRUCTURE
     1 6XU         1 TEMP              0 ****  ****    0 ROOT
