@<TRIPOS>MOLECULE
6XU
   54    57     1     0     0
SMALL
bcc


@<TRIPOS>ATOM
      1 C01          2.0670     0.1870    -2.8490 c3         1 6XU      -0.086100
      2 C02          1.7730    -0.0680    -1.3680 c6         1 6XU       0.294700
      3 C03          0.5020    -0.9050    -1.1970 ce         1 6XU      -0.367400
      4 C04         -0.6800    -0.2770    -1.0260 c2         1 6XU       0.228800
      5 N05         -0.7130     1.0840    -0.8720 nu         1 6XU      -0.703000
      6 C06          0.4530     1.7300    -0.5970 ce         1 6XU       0.591200
      7 N07          1.6190     1.2450    -0.7430 n2         1 6XU      -0.694900
      8 C08          0.3510     3.0900    -0.0560 cc         1 6XU       0.380100
      9 N09         -0.7500     3.7110     0.2170 nd         1 6XU      -0.577000
     10 C10         -0.4970     4.9560     0.7070 cd         1 6XU       0.347200
     11 C11          0.8200     5.2840     0.8060 cc         1 6XU      -0.249400
     12 S12          1.7890     3.9850     0.2630 ss         1 6XU      -0.108300
     13 C13         -2.0600    -0.8860    -1.0240 c3         1 6XU       0.233000
     14 N14         -2.7640    -0.5320     0.1770 n3         1 6XU      -0.777600
     15 C15         -2.5380    -1.3730     1.3350 c5         1 6XU       0.149800
     16 C16         -3.8580    -1.3090     2.0910 c5         1 6XU       0.388600
     17 C17         -4.5910    -0.1140     1.5330 c5         1 6XU      -0.109400
     18 C18         -4.1490    -0.1270     0.0700 c5         1 6XU       0.070500
     19 C19         -4.3610     1.2480    -0.5900 c          1 6XU       0.938600
     20 O20         -3.3570     1.9270    -0.8990 o          1 6XU      -0.814300
     21 O21         -5.5490     1.5750    -0.7460 o          1 6XU      -0.814300
     22 F22         -4.5850    -2.4510     1.8610 f          1 6XU      -0.254800
     23 F23         -3.6930    -1.2610     3.4430 f          1 6XU      -0.254800
     24 C24          0.5950    -2.3740    -1.2180 c          1 6XU       0.682300
     25 O25         -0.0740    -3.1430    -0.5630 o          1 6XU      -0.568000
     26 O26          1.5500    -2.7910    -2.0440 os         1 6XU      -0.416900
     27 C27          1.8830    -4.1740    -2.0300 c3         1 6XU       0.131700
     28 C28          2.9300    -0.7370    -0.6290 ca         1 6XU      -0.049300
     29 C29          4.1270    -1.0930    -1.2360 ca         1 6XU      -0.085500
     30 C30          5.1540    -1.6870    -0.5130 ca         1 6XU      -0.180500
     31 C31          4.9650    -1.9230     0.8330 ca         1 6XU       0.115900
     32 C32          3.7910    -1.5820     1.4760 ca         1 6XU      -0.180500
     33 C33          2.7820    -0.9880     0.7330 ca         1 6XU      -0.085500
     34 F34          5.9530    -2.5010     1.5400 f          1 6XU      -0.160900
     35 H1           2.2720    -0.7340    -3.3910 hc         1 6XU       0.039700
     36 H2           1.2020     0.6630    -3.3110 hc         1 6XU       0.039700
     37 H3           2.9190     0.8590    -2.9640 hc         1 6XU       0.039700
     38 H4          -1.6420     1.5190    -0.7170 hn         1 6XU       0.557800
     39 H5          -1.3170     5.6020     0.9840 h4         1 6XU       0.042100
     40 H6           1.2500     6.2040     1.1670 h4         1 6XU       0.166000
     41 H7          -2.5870    -0.4580    -1.8810 h1         1 6XU       0.065200
     42 H8          -2.0200    -1.9630    -1.1920 h1         1 6XU       0.065200
     43 H10         -2.2960    -2.4090     1.0730 h1         1 6XU       0.057200
     44 H11         -1.7190    -0.9980     1.9580 h1         1 6XU       0.057200
     45 H12         -5.6700    -0.1750     1.6670 hc         1 6XU       0.077700
     46 H13         -4.2260     0.7890     2.0290 hc         1 6XU       0.077700
     47 H14         -4.7630    -0.8580    -0.4820 h1         1 6XU       0.030700
     48 H16          2.7110    -4.2890    -2.7240 h1         1 6XU       0.037700
     49 H17          2.2000    -4.4980    -1.0380 h1         1 6XU       0.037700
     50 H18          1.0490    -4.7940    -2.3590 h1         1 6XU       0.037700
     51 H19          4.2830    -0.9200    -2.2920 ha         1 6XU       0.140000
     52 H20          6.0820    -1.9660    -0.9940 ha         1 6XU       0.138500
     53 H21          3.6650    -1.7740     2.5330 ha         1 6XU       0.138500
     54 H22          1.8590    -0.7170     1.2320 ha         1 6XU       0.140000
@<TRIPOS>BOND
     1     1     2 1   
     2     1    35 1   
     3     1    36 1   
     4     1    37 1   
     5     2     3 1   
     6     2     7 1   
     7     2    28 1   
     8     3     4 2   
     9     3    24 1   
    10     4     5 1   
    11     4    13 1   
    12     5     6 1   
    13     5    38 1   
    14     6     7 2   
    15     6     8 1   
    16     8     9 2   
    17     8    12 1   
    18     9    10 1   
    19    10    11 2   
    20    10    39 1   
    21    11    12 1   
    22    11    40 1   
    23    13    14 1   
    24    13    41 1   
    25    13    42 1   
    26    14    15 1   
    27    14    18 1   
    28    15    16 1   
    29    15    43 1   
    30    15    44 1   
    31    16    17 1   
    32    16    22 1   
    33    16    23 1   
    34    17    18 1   
    35    17    45 1   
    36    17    46 1   
    37    18    19 1   
    38    18    47 1   
    39    19    20 1   
    40    19    21 1   
    41    24    25 2   
    42    24    26 1   
    43    26    27 1   
    44    27    48 1   
    45    27    49 1   
    46    27    50 1   
    47    28    29 ar  
    48    28    33 ar  
    49    29    30 ar  
    50    29    51 1   
    51    30    31 ar  
    52    30    52 1   
    53    31    32 ar  
    54    31    34 1   
    55    32    33 ar  
    56    32    53 1   
    57    33    54 1   
@<TRIPOS>SUBSTRUCTURE
     1 6XU         1 TEMP              0 ****  ****    0 ROOT
