@<TRIPOS>MOLECULE
6XV
   48    51     1     0     0
SMALL
bcc


@<TRIPOS>ATOM
      1 N10         -6.6490    -0.5420    -0.8840 nu         1 6XV      -0.854700
      2 C14         -3.9410    -0.9140     0.7410 ca         1 6XV      -0.135000
      3 C18          3.5910     0.8580    -1.1260 ca         1 6XV      -0.185500
      4 C19          4.5950    -0.0540    -0.7680 ca         1 6XV       0.231400
      5 C26          4.1870    -1.2430    -0.1380 ca         1 6XV      -0.185500
      6 C27          2.8550    -1.4840     0.1390 ca         1 6XV      -0.065500
      7 C02          0.4550    -0.9030     0.1340 c          1 6XV       0.694700
      8 C04         -1.7960     0.1300     0.3970 ca         1 6XV       0.052600
      9 C05         -2.4220     1.3700     0.5450 ca         1 6XV      -0.153000
     10 C06         -3.7810     1.4640     0.7830 ca         1 6XV      -0.135000
     11 C07         -4.5810     0.3210     0.8800 ca         1 6XV       0.157400
     12 N08         -5.9340     0.4460     1.1800 ne         1 6XV      -0.712100
     13 C09         -6.8130    -0.0220     0.3680 c2         1 6XV       0.825100
     14 C11         -7.8910    -1.1300    -1.3510 c5         1 6XV       0.190800
     15 C12         -8.9120    -0.3280    -0.5480 c5         1 6XV       0.190800
     16 N13         -8.1500    -0.0350     0.6510 nu         1 6XV      -0.854700
     17 C15         -2.5780    -1.0200     0.5000 ca         1 6XV      -0.153000
     18 C16          1.8660    -0.5550    -0.1880 ca         1 6XV      -0.190600
     19 C17          2.2620     0.6160    -0.8390 ca         1 6XV      -0.065500
     20 C21          6.8830     0.0440    -0.3310 c2         1 6XV       0.850100
     21 N22          8.1780     0.1290    -0.7470 nu         1 6XV      -0.855700
     22 C23          9.0720     0.2140     0.3930 c5         1 6XV       0.192300
     23 C24          8.2400    -0.4820     1.4680 c5         1 6XV       0.192300
     24 N25          6.8950    -0.1830     1.0130 nu         1 6XV      -0.855700
     25 H1          -5.7680    -0.9530    -1.1450 hn         1 6XV       0.442300
     26 H2          -4.5150    -1.8270     0.8490 ha         1 6XV       0.133000
     27 H3           3.8740     1.7650    -1.6450 ha         1 6XV       0.135500
     28 H4           4.9180    -2.0050     0.1050 ha         1 6XV       0.135500
     29 H5           2.5710    -2.4130     0.6150 ha         1 6XV       0.137500
     30 H6          -0.0260     1.0640     0.0440 hn         1 6XV       0.316500
     31 H7          -1.8370     2.2800     0.4690 ha         1 6XV       0.143000
     32 H8          -4.2350     2.4400     0.9000 ha         1 6XV       0.133000
     33 H9          -8.0170    -1.0100    -2.4260 h1         1 6XV       0.050700
     34 H10         -7.9500    -2.1970    -1.1130 h1         1 6XV       0.050700
     35 H11         -9.2050     0.5830    -1.0810 h1         1 6XV       0.050700
     36 H12         -9.8110    -0.9010    -0.3280 h1         1 6XV       0.050700
     37 H13         -8.4960     0.6410     1.3120 hn         1 6XV       0.442300
     38 H14         -2.1370    -1.9990     0.4030 ha         1 6XV       0.143000
     39 H15          1.5380     1.3550    -1.1610 ha         1 6XV       0.137500
     40 H16          8.3700     0.6570    -1.5830 hn         1 6XV       0.448300
     41 H17         10.0170    -0.2910     0.2040 h1         1 6XV       0.054450
     42 H18          9.2830     1.2520     0.6700 h1         1 6XV       0.054450
     43 H19          8.4310    -1.5600     1.4840 h1         1 6XV       0.054450
     44 H20          8.4280    -0.0840     2.4630 h1         1 6XV       0.054450
     45 H21          6.0970    -0.5840     1.4770 hn         1 6XV       0.448300
     46 N03         -0.4180     0.1420     0.1450 ns         1 6XV      -0.470100
     47 N20          5.8910     0.2190    -1.1330 ne         1 6XV      -0.735100
     48 O01          0.1250    -2.0500     0.3790 o          1 6XV      -0.591100
@<TRIPOS>BOND
     1     1    13 1   
     2     1    14 1   
     3     1    25 1   
     4     2    11 ar  
     5     2    17 ar  
     6     2    26 1   
     7     3     4 ar  
     8     3    19 ar  
     9     3    27 1   
    10     4     5 ar  
    11     4    47 1   
    12     5     6 ar  
    13     5    28 1   
    14     6    18 ar  
    15     6    29 1   
    16     7    18 1   
    17     7    46 1   
    18     7    48 2   
    19     8     9 ar  
    20     8    17 ar  
    21     8    46 1   
    22     9    10 ar  
    23     9    31 1   
    24    10    11 ar  
    25    10    32 1   
    26    11    12 1   
    27    12    13 2   
    28    13    16 1   
    29    14    15 1   
    30    14    33 1   
    31    14    34 1   
    32    15    16 1   
    33    15    35 1   
    34    15    36 1   
    35    16    37 1   
    36    17    38 1   
    37    18    19 ar  
    38    19    39 1   
    39    20    21 1   
    40    20    24 1   
    41    20    47 2   
    42    21    22 1   
    43    21    40 1   
    44    22    23 1   
    45    22    41 1   
    46    22    42 1   
    47    23    24 1   
    48    23    43 1   
    49    23    44 1   
    50    24    45 1   
    51    30    46 1   
@<TRIPOS>SUBSTRUCTURE
     1 6XV         1 TEMP              0 ****  ****    0 ROOT
