@<TRIPOS>MOLECULE
6XV
   48    51     1     0     0
SMALL
No Charge or Current Charge


@<TRIPOS>ATOM
      1 N10         -6.6570    -0.6710    -0.7500 nu         1 6XV      -0.909900
      2 C14         -3.9460    -0.8270     1.0200 ca         1 6XV      -0.117000
      3 C18          3.7030     0.9040    -0.8280 ca         1 6XV      -0.167500
      4 C19          4.6540    -0.1240    -0.8770 ca         1 6XV       0.231400
      5 C26          4.2490    -1.4490    -0.6530 ca         1 6XV      -0.167500
      6 C27          2.9050    -1.7420    -0.3650 ca         1 6XV      -0.047500
      7 C02          0.4930    -1.0620     0.0140 c          1 6XV       0.627700
      8 C04         -1.7900     0.0950     0.3220 ca         1 6XV      -0.040000
      9 C05         -2.4080     1.3480     0.1470 ca         1 6XV      -0.135000
     10 C06         -3.7820     1.5120     0.3990 ca         1 6XV      -0.117000
     11 C07         -4.5590     0.4240     0.8270 ca         1 6XV       0.157400
     12 N08         -5.9320     0.5990     1.0820 ne         1 6XV      -0.712100
     13 C09         -6.8480     0.0570     0.3750 c2         1 6XV       0.825100
     14 C11         -7.9510    -1.3100    -1.0660 c5         1 6XV       0.190800
     15 C12         -8.8980    -0.1870    -0.5730 c5         1 6XV       0.190800
     16 N13         -8.1580     0.2300     0.6390 nu         1 6XV      -0.909900
     17 C15         -2.5710    -0.9940     0.7680 ca         1 6XV      -0.135000
     18 C16          1.9380    -0.7120    -0.3010 ca         1 6XV      -0.190600
     19 C17          2.3570     0.6210    -0.5400 ca         1 6XV      -0.047500
     20 C21          6.9350     0.0480    -0.3200 c2         1 6XV       0.850100
     21 N22          8.2120     0.3470    -0.6180 nu         1 6XV      -0.910900
     22 C23          8.9260     0.5030     0.6700 c5         1 6XV       0.192300
     23 C24          8.1470    -0.5410     1.5090 c5         1 6XV       0.192300
     24 N25          6.7890    -0.2880     0.9820 nu         1 6XV      -0.910900
     25 H1          -5.8030    -1.2150    -0.7230 hn         1 6XV       0.497500
     26 H2          -4.5330    -1.6710     1.3740 ha         1 6XV       0.115000
     27 H3           4.0110     1.9310    -1.0100 ha         1 6XV       0.117500
     28 H4           4.9740    -2.2570    -0.7090 ha         1 6XV       0.117500
     29 H5           2.6190    -2.7780    -0.1940 ha         1 6XV       0.119500
     30 H6           0.0310     0.9010    -0.1550 hn         1 6XV       0.150000
     31 H7          -1.8240     2.2030    -0.1890 ha         1 6XV       0.125000
     32 H8          -4.2450     2.4860     0.2570 ha         1 6XV       0.115000
     33 H9          -8.0840    -1.5330    -2.1340 h1         1 6XV       0.050700
     34 H10         -8.1050    -2.2360    -0.4920 h1         1 6XV       0.050700
     35 H11         -8.9650     0.6240    -1.3140 h1         1 6XV       0.050700
     36 H12         -9.9120    -0.5550    -0.3650 h1         1 6XV       0.050700
     37 H13         -8.3380     1.1300     1.0710 hn         1 6XV       0.497500
     38 H14         -2.1360    -1.9740     0.9370 ha         1 6XV       0.125000
     39 H15          1.6560     1.4530    -0.5070 ha         1 6XV       0.119500
     40 H16          8.2670     1.0690    -1.3290 hn         1 6XV       0.503500
     41 H17         10.0000     0.2750     0.6090 h1         1 6XV       0.054450
     42 H18          8.8060     1.5120     1.0890 h1         1 6XV       0.054450
     43 H19          8.4930    -1.5610     1.2880 h1         1 6XV       0.054450
     44 H20          8.2420    -0.3650     2.5890 h1         1 6XV       0.054450
     45 H21          6.0450    -0.9590     1.1300 hn         1 6XV       0.503500
     46 N03         -0.3950     0.0080     0.0500 ns         1 6XV      -0.144000
     47 N20          5.9940     0.1750    -1.1720 ne         1 6XV      -0.735100
     48 O01          0.1550    -2.2250     0.2130 o          1 6XV      -0.591100
@<TRIPOS>BOND
     1     1    13 1   
     2     1    14 1   
     3     1    25 1   
     4     2    11 ar  
     5     2    17 ar  
     6     2    26 1   
     7     3     4 ar  
     8     3    19 ar  
     9     3    27 1   
    10     4     5 ar  
    11     4    47 1   
    12     5     6 ar  
    13     5    28 1   
    14     6    18 ar  
    15     6    29 1   
    16     7    18 1   
    17     7    46 1   
    18     7    48 2   
    19     8     9 ar  
    20     8    17 ar  
    21     8    46 1   
    22     9    10 ar  
    23     9    31 1   
    24    10    11 ar  
    25    10    32 1   
    26    11    12 1   
    27    12    13 2   
    28    13    16 1   
    29    14    15 1   
    30    14    33 1   
    31    14    34 1   
    32    15    16 1   
    33    15    35 1   
    34    15    36 1   
    35    16    37 1   
    36    17    38 1   
    37    18    19 ar  
    38    19    39 1   
    39    20    21 1   
    40    20    24 1   
    41    20    47 2   
    42    21    22 1   
    43    21    40 1   
    44    22    23 1   
    45    22    41 1   
    46    22    42 1   
    47    23    24 1   
    48    23    43 1   
    49    23    44 1   
    50    24    45 1   
    51    30    46 1   
@<TRIPOS>SUBSTRUCTURE
     1 6XV         1 TEMP              0 ****  ****    0 ROOT
