@<TRIPOS>MOLECULE
6XW
   68    72     1     0     0
SMALL
No Charge or Current Charge


@<TRIPOS>ATOM
      1 C10          3.0130     1.0810    -1.2020 ca         1 6XW       0.361900
      2 N12          1.8280     1.5560    -0.7630 nb         1 6XW      -0.725000
      3 C13          1.3730     1.0940     0.4090 ca         1 6XW       0.588900
      4 C21         -0.7360     5.2300    -0.1580 c6         1 6XW       0.161800
      5 C26         -2.8370     3.9150    -0.0980 c6         1 6XW       0.131800
      6 C05          3.4450    -1.8420     2.7430 cc         1 6XW      -0.161400
      7 C06          3.9670    -1.4020     1.5380 cd         1 6XW      -0.111200
      8 C08          3.2990    -0.3700     0.7250 ca         1 6XW      -0.047800
      9 C09          3.8000     0.1270    -0.5090 cp         1 6XW      -0.089000
     10 N14          0.1320     1.5920     0.7920 nu         1 6XW      -0.909100
     11 C16         -0.6040     2.7050     0.1360 c6         1 6XW       0.222500
     12 C18          0.0360     4.0670     0.5060 c6         1 6XW      -0.102400
     13 N24         -2.1680     5.2070     0.2220 n7         1 6XW      -0.866400
     14 C29         -2.1090     2.6960     0.5530 c6         1 6XW       0.167300
     15 O31         -2.7260     1.4310     0.1970 os         1 6XW      -0.452000
     16 C32         -4.0740     1.2010     0.6470 c3         1 6XW       0.169600
     17 C35         -4.5100    -0.2360     0.2380 c6         1 6XW      -0.074700
     18 C37         -5.8930    -0.5800     0.8640 c6         1 6XW      -0.054900
     19 C40         -6.3260    -2.0450     0.5880 c6         1 6XW      -0.295400
     20 S43         -6.4880    -2.4200    -1.1790 s6         1 6XW       1.073000
     21 O44         -7.5150    -1.5450    -1.7600 o          1 6XW      -0.518500
     22 O45         -6.5820    -3.8760    -1.3500 o          1 6XW      -0.518500
     23 C46         -4.8560    -1.8660    -1.7430 c6         1 6XW      -0.295400
     24 C49         -4.5180    -0.4140    -1.3110 c6         1 6XW      -0.054900
     25 C52          2.0720     0.1370     1.1930 ca         1 6XW      -0.007400
     26 N53          1.5930    -0.3290     2.4470 ns         1 6XW      -0.365100
     27 C55          2.1710    -1.2680     3.2660 c          1 6XW       0.554200
     28 O56          1.6510    -1.5790     4.3280 o          1 6XW      -0.554000
     29 C57          5.1090    -0.3040    -1.0850 cp         1 6XW      -0.039000
     30 C58          6.3170    -0.2000    -0.3440 ca         1 6XW       0.295900
     31 N60          7.5310    -0.5580    -0.8250 nb         1 6XW      -0.634000
     32 C61          7.5820    -1.0330    -2.0950 ca         1 6XW       0.272900
     33 C63          6.4410    -1.1670    -2.9370 ca         1 6XW       0.246000
     34 N64          6.5160    -1.6490    -4.2340 nv         1 6XW      -1.070000
     35 C67          5.1940    -0.7890    -2.4140 ca         1 6XW      -0.140000
     36 H1           3.3610     1.4870    -2.1510 h4         1 6XW       0.023100
     37 H3          -0.6440     5.1530    -1.2520 h1         1 6XW       0.037200
     38 H4          -3.8760     3.9610     0.2570 h1         1 6XW       0.041700
     39 H5          -2.8640     3.7780    -1.1900 h1         1 6XW       0.041700
     40 H6           4.3460    -2.4970     4.5960 hc         1 6XW       0.053033
     41 H7           3.4200    -3.7540     3.7520 hc         1 6XW       0.053033
     42 H8           5.0170    -3.2780     3.1570 hc         1 6XW       0.053033
     43 H9           4.8830    -1.8610     1.1790 ha         1 6XW       0.201000
     44 H10         -0.4360     0.9290     1.3100 hn         1 6XW       0.470000
     45 H11         -0.5750     2.5880    -0.9600 h1         1 6XW       0.095700
     46 H12          1.0840     4.0990     0.1830 hc         1 6XW       0.056700
     47 H13          0.0380     4.1990     1.5960 hc         1 6XW       0.056700
     48 H14         -2.6560     5.9720    -0.2660 hn         1 6XW       0.420000
     49 H16         -2.1640     2.8050     1.6460 h1         1 6XW       0.046700
     50 H17         -4.1300     1.2950     1.7390 h1         1 6XW       0.027200
     51 H18         -4.7700     1.9230     0.2010 h1         1 6XW       0.027200
     52 H19         -3.7580    -0.9130     0.6670 hc         1 6XW       0.066700
     53 H20         -5.8530    -0.4220     1.9510 hc         1 6XW       0.065700
     54 H21         -6.6580     0.1140     0.4860 hc         1 6XW       0.065700
     55 H22         -5.5890    -2.7560     0.9800 h1         1 6XW       0.103700
     56 H23         -7.3060    -2.2610     1.0310 h1         1 6XW       0.103700
     57 H24         -4.1350    -2.5800    -1.3250 h1         1 6XW       0.103700
     58 H25         -4.8660    -1.9650    -2.8360 h1         1 6XW       0.103700
     59 H26         -5.2330     0.2880    -1.7640 hc         1 6XW       0.065700
     60 H27         -3.5340    -0.1470    -1.7210 hc         1 6XW       0.065700
     61 H28          0.7580     0.1070     2.8160 hn         1 6XW       0.327500
     62 H29          6.3040     0.1900     0.6740 h4         1 6XW       0.025100
     63 H30          8.5700    -1.3140    -2.4580 h4         1 6XW       0.018100
     64 H31          7.4190    -1.8490    -4.6640 hn         1 6XW       0.454500
     65 H32          5.6920    -1.6500    -4.8360 hn         1 6XW       0.454500
     66 H33          4.2960    -0.8770    -3.0200 ha         1 6XW       0.123000
     67 C01          4.0920    -2.9000     3.6080 c3         1 6XW      -0.042900
     68 H2          -0.2900     6.1890     0.1460 h1         1 6XW       0.037200
@<TRIPOS>BOND
     1     1     2 ar  
     2     1     9 ar  
     3     1    36 1   
     4     2     3 ar  
     5     3    10 1   
     6     3    25 ar  
     7     4    12 1   
     8     4    13 1   
     9     4    37 1   
    10     4    68 1   
    11     5    13 1   
    12     5    14 1   
    13     5    38 1   
    14     5    39 1   
    15     6     7 2   
    16     6    27 1   
    17     6    67 1   
    18     7     8 1   
    19     7    43 1   
    20     8     9 ar  
    21     8    25 ar  
    22     9    29 1   
    23    10    11 1   
    24    10    44 1   
    25    11    12 1   
    26    11    14 1   
    27    11    45 1   
    28    12    46 1   
    29    12    47 1   
    30    13    48 1   
    31    14    15 1   
    32    14    49 1   
    33    15    16 1   
    34    16    17 1   
    35    16    50 1   
    36    16    51 1   
    37    17    18 1   
    38    17    24 1   
    39    17    52 1   
    40    18    19 1   
    41    18    53 1   
    42    18    54 1   
    43    19    20 1   
    44    19    55 1   
    45    19    56 1   
    46    20    21 2   
    47    20    22 2   
    48    20    23 1   
    49    23    24 1   
    50    23    57 1   
    51    23    58 1   
    52    24    59 1   
    53    24    60 1   
    54    25    26 1   
    55    26    27 1   
    56    26    61 1   
    57    27    28 2   
    58    29    30 ar  
    59    29    35 ar  
    60    30    31 ar  
    61    30    62 1   
    62    31    32 ar  
    63    32    33 ar  
    64    32    63 1   
    65    33    34 1   
    66    33    35 ar  
    67    34    64 1   
    68    34    65 1   
    69    35    66 1   
    70    40    67 1   
    71    41    67 1   
    72    42    67 1   
@<TRIPOS>SUBSTRUCTURE
     1 6XW         1 TEMP              0 ****  ****    0 ROOT
