@<TRIPOS>MOLECULE
6XW
   68    72     1     0     0
SMALL
bcc


@<TRIPOS>ATOM
      1 C10          2.9700     1.0320    -1.1780 ca         1 6XW       0.427200
      2 N12          1.8100     1.5380    -0.7490 nb         1 6XW      -0.725000
      3 C13          1.3150     1.1530     0.4070 ca         1 6XW       0.654200
      4 C21         -0.8790     5.1420    -0.3800 c6         1 6XW       0.161800
      5 C26         -2.8080     3.7260    -0.3440 c6         1 6XW       0.131800
      6 C05          3.2740    -1.7880     2.7180 cc         1 6XW      -0.161400
      7 C06          3.8250    -1.3380     1.5710 cd         1 6XW      -0.061200
      8 C08          3.2040    -0.3360     0.7550 ca         1 6XW      -0.047800
      9 C09          3.7350     0.1320    -0.4730 cp         1 6XW      -0.154300
     10 N14          0.1300     1.6730     0.8380 nu         1 6XW      -0.853900
     11 C16         -0.5790     2.6840     0.0820 c6         1 6XW       0.222500
     12 C18         -0.0460     4.0950     0.3430 c6         1 6XW      -0.102400
     13 N24         -2.2670     5.0170     0.0270 n7         1 6XW      -0.811200
     14 C29         -2.0680     2.6190     0.4070 c6         1 6XW       0.144100
     15 O31         -2.5520     1.3510     0.0360 os         1 6XW      -0.405600
     16 C32         -3.6470     0.8980     0.7930 c3         1 6XW       0.146400
     17 C35         -4.2050    -0.3690     0.1670 c6         1 6XW      -0.074700
     18 C37         -5.3120    -0.9220     1.0680 c6         1 6XW      -0.054900
     19 C40         -5.8800    -2.2450     0.5730 c6         1 6XW      -0.184600
     20 S43         -6.5910    -2.0600    -1.0560 s6         1 6XW       0.993000
     21 O44         -7.6550    -1.0540    -0.9870 o          1 6XW      -0.589300
     22 O45         -6.9280    -3.3770    -1.6000 o          1 6XW      -0.589300
     23 C46         -5.2150    -1.3580    -1.9540 c6         1 6XW      -0.184600
     24 C49         -4.6960    -0.1060    -1.2590 c6         1 6XW      -0.054900
     25 C52          1.9780     0.1590     1.1820 ca         1 6XW      -0.072700
     26 N53          1.4170    -0.3350     2.3330 ns         1 6XW      -0.432100
     27 C55          1.9730    -1.2800     3.1510 c          1 6XW       0.696700
     28 O56          1.3920    -1.6680     4.1560 o          1 6XW      -0.629500
     29 C57          5.0390    -0.3090    -0.9990 cp         1 6XW      -0.104300
     30 C58          6.2090    -0.1500    -0.2540 ca         1 6XW       0.361200
     31 N60          7.4000    -0.5080    -0.7090 nb         1 6XW      -0.634000
     32 C61          7.4960    -1.0340    -1.9180 ca         1 6XW       0.338200
     33 C63          6.3960    -1.2380    -2.7620 ca         1 6XW       0.042300
     34 N64          6.5400    -1.8380    -3.9880 nv         1 6XW      -0.821200
     35 C67          5.1450    -0.8600    -2.2690 ca         1 6XW      -0.158000
     36 H1           3.3210     1.4070    -2.1340 h4         1 6XW       0.023100
     37 H3          -0.7450     5.0210    -1.4670 h1         1 6XW       0.037200
     38 H4          -3.8700     3.6980    -0.0920 h1         1 6XW       0.041700
     39 H5          -2.7280     3.5210    -1.4250 h1         1 6XW       0.041700
     40 H6           4.1000    -2.4410     4.5830 hc         1 6XW       0.053033
     41 H7           3.2760    -3.7010     3.6870 hc         1 6XW       0.053033
     42 H8           4.8670    -3.1430     3.1570 hc         1 6XW       0.053033
     43 H9           4.7710    -1.7560     1.2510 ha         1 6XW       0.151000
     44 H10          0.0130     1.7560     1.8370 hn         1 6XW       0.414800
     45 H11         -0.4520     2.4500    -0.9780 h1         1 6XW       0.095700
     46 H12          0.9950     4.1550     0.0220 hc         1 6XW       0.056700
     47 H13         -0.0680     4.2950     1.4190 hc         1 6XW       0.056700
     48 H14         -2.8200     5.7500    -0.3960 hn         1 6XW       0.364800
     49 H16         -2.2000     2.7840     1.4880 h1         1 6XW       0.046700
     50 H17         -3.3350     0.6940     1.8270 h1         1 6XW       0.027200
     51 H18         -4.4430     1.6550     0.8440 h1         1 6XW       0.027200
     52 H19         -3.4000    -1.1130     0.1250 hc         1 6XW       0.066700
     53 H20         -4.9180    -1.0920     2.0720 hc         1 6XW       0.065700
     54 H21         -6.1180    -0.1900     1.1700 hc         1 6XW       0.065700
     55 H22         -5.1090    -3.0130     0.4940 h1         1 6XW       0.103700
     56 H23         -6.6800    -2.6190     1.2160 h1         1 6XW       0.103700
     57 H24         -4.4500    -2.1340    -2.0210 h1         1 6XW       0.103700
     58 H25         -5.5840    -1.1480    -2.9600 h1         1 6XW       0.103700
     59 H26         -5.4780     0.6590    -1.2480 hc         1 6XW       0.065700
     60 H27         -3.8820     0.2880    -1.8670 hc         1 6XW       0.065700
     61 H28          0.4800    -0.0510     2.5820 hn         1 6XW       0.327500
     62 H29          6.1740     0.2990     0.7330 h4         1 6XW       0.025100
     63 H30          8.4900    -1.3130    -2.2560 h4         1 6XW       0.018100
     64 H31          7.4660    -1.8160    -4.3850 hn         1 6XW       0.399300
     65 H32          5.8300    -1.6320    -4.6710 hn         1 6XW       0.399300
     66 H33          4.2570    -1.0090    -2.8720 ha         1 6XW       0.141000
     67 C01          3.9160    -2.8240     3.5780 c3         1 6XW      -0.042900
     68 H2          -0.5210     6.1400    -0.1240 h1         1 6XW       0.037200
@<TRIPOS>BOND
     1     1     2 ar  
     2     1     9 ar  
     3     1    36 1   
     4     2     3 ar  
     5     3    10 1   
     6     3    25 ar  
     7     4    12 1   
     8     4    13 1   
     9     4    37 1   
    10     4    68 1   
    11     5    13 1   
    12     5    14 1   
    13     5    38 1   
    14     5    39 1   
    15     6     7 2   
    16     6    27 1   
    17     6    67 1   
    18     7     8 1   
    19     7    43 1   
    20     8     9 ar  
    21     8    25 ar  
    22     9    29 1   
    23    10    11 1   
    24    10    44 1   
    25    11    12 1   
    26    11    14 1   
    27    11    45 1   
    28    12    46 1   
    29    12    47 1   
    30    13    48 1   
    31    14    15 1   
    32    14    49 1   
    33    15    16 1   
    34    16    17 1   
    35    16    50 1   
    36    16    51 1   
    37    17    18 1   
    38    17    24 1   
    39    17    52 1   
    40    18    19 1   
    41    18    53 1   
    42    18    54 1   
    43    19    20 1   
    44    19    55 1   
    45    19    56 1   
    46    20    21 2   
    47    20    22 2   
    48    20    23 1   
    49    23    24 1   
    50    23    57 1   
    51    23    58 1   
    52    24    59 1   
    53    24    60 1   
    54    25    26 1   
    55    26    27 1   
    56    26    61 1   
    57    27    28 2   
    58    29    30 ar  
    59    29    35 ar  
    60    30    31 ar  
    61    30    62 1   
    62    31    32 ar  
    63    32    33 ar  
    64    32    63 1   
    65    33    34 1   
    66    33    35 ar  
    67    34    64 1   
    68    34    65 1   
    69    35    66 1   
    70    40    67 1   
    71    41    67 1   
    72    42    67 1   
@<TRIPOS>SUBSTRUCTURE
     1 6XW         1 TEMP              0 ****  ****    0 ROOT
