@<TRIPOS>MOLECULE
6XX
   73    77     1     0     0
SMALL
abcg2


@<TRIPOS>ATOM
      1 C13          3.0990     3.3650     0.2680 c6         1 6XX       0.121800
      2 C22          4.2970    -0.8180     0.1560 c6         1 6XX      -0.065700
      3 C24          5.5000    -1.4280    -0.5650 c6         1 6XX      -0.070900
      4 O05         -0.9600     3.9570    -0.4450 os         1 6XX      -0.436000
      5 C06          0.4160     3.8210    -0.6880 c6         1 6XX       0.109300
      6 C08          1.2480     4.8800     0.0430 c6         1 6XX       0.123800
      7 N11          2.6770     4.6960    -0.1200 n7         1 6XX      -0.842400
      8 C16          2.3420     2.2430    -0.4530 c6         1 6XX       0.136300
      9 O18          2.7120     0.9780     0.0350 os         1 6XX      -0.438000
     10 C19          3.8640     0.4410    -0.5720 c3         1 6XX       0.164600
     11 C27          6.0110    -2.6830     0.1360 c6         1 6XX      -0.124400
     12 C30          6.3030    -2.4100     1.5920 c6         1 6XX       0.178000
     13 F31          6.6990    -3.5680     2.2150 f          1 6XX      -0.125500
     14 F32          7.3910    -1.5710     1.6880 f          1 6XX      -0.125500
     15 C33          5.1360    -1.8000     2.3290 c6         1 6XX      -0.124400
     16 C36          4.6350    -0.5430     1.6210 c6         1 6XX      -0.070900
     17 C39          0.8380     2.4170    -0.2470 c6         1 6XX       0.223500
     18 N41          0.1090     1.4000    -0.9720 nu         1 6XX      -0.907100
     19 C43         -1.0160     0.8110    -0.4850 ca         1 6XX       0.613900
     20 N44         -1.3370     0.9860     0.7790 nb         1 6XX      -0.714000
     21 C45         -2.4460     0.4340     1.2720 ca         1 6XX       0.372900
     22 C47         -3.3290    -0.3270     0.5420 cp         1 6XX      -0.100000
     23 C48         -4.5630    -0.8290     1.1690 cp         1 6XX      -0.074000
     24 C49         -5.8210    -0.5400     0.6360 ca         1 6XX       0.337900
     25 N51         -6.9560    -0.9310     1.1900 nb         1 6XX      -0.662000
     26 C52         -6.8960    -1.6310     2.3180 ca         1 6XX       0.333900
     27 C54         -5.7100    -1.9790     2.9540 ca         1 6XX      -0.124300
     28 C55         -5.7050    -2.7790     4.2200 c3         1 6XX      -0.043800
     29 C59         -4.5280    -1.5620     2.3500 ca         1 6XX      -0.070000
     30 C61         -2.9800    -0.5860    -0.8060 ca         1 6XX      -0.044800
     31 C62         -3.7420    -1.4350    -1.6770 cc         1 6XX      -0.110200
     32 C64         -3.3760    -1.6900    -2.9510 cd         1 6XX      -0.163400
     33 C65         -4.1590    -2.5750    -3.8620 c3         1 6XX      -0.041900
     34 C69         -2.1460    -1.1100    -3.4820 c          1 6XX       0.554200
     35 O70         -1.7340    -1.3120    -4.6180 o          1 6XX      -0.559000
     36 N71         -1.4490    -0.3200    -2.6090 ns         1 6XX      -0.367100
     37 C73         -1.8120    -0.0310    -1.3160 ca         1 6XX      -0.016400
     38 H1           4.1720     3.2710     0.0870 h1         1 6XX       0.067700
     39 H2           2.9500     3.2480     1.3470 h1         1 6XX       0.067700
     40 H3           3.4730    -1.5420     0.1180 hc         1 6XX       0.064700
     41 H5           6.3010    -0.6850    -0.6280 hc         1 6XX       0.053950
     42 H6          -2.6600     4.8890    -1.0230 h1         1 6XX       0.032033
     43 H7          -1.2600     5.9650    -0.9510 h1         1 6XX       0.032033
     44 H8          -1.4180     4.8100    -2.2850 h1         1 6XX       0.032033
     45 H9           0.6170     3.9120    -1.7710 h1         1 6XX       0.021700
     46 H10          0.9820     5.8800    -0.3040 h1         1 6XX       0.067700
     47 H11          1.0080     4.8380     1.1120 h1         1 6XX       0.067700
     48 H12          2.9400     4.8750    -1.0820 hn         1 6XX       0.407000
     49 H14          2.5560     2.3140    -1.5330 h1         1 6XX       0.024700
     50 H15          4.6940     1.1610    -0.5590 h1         1 6XX       0.022700
     51 H16          3.6610     0.2100    -1.6280 h1         1 6XX       0.022700
     52 H17          5.2520    -3.4680     0.0850 hc         1 6XX       0.067950
     53 H18          6.9070    -3.0670    -0.3590 hc         1 6XX       0.067950
     54 H19          4.3350    -2.5430     2.3680 hc         1 6XX       0.067950
     55 H20          5.4230    -1.5780     3.3600 hc         1 6XX       0.067950
     56 H21          5.3960     0.2430     1.6770 hc         1 6XX       0.053950
     57 H22          3.7610    -0.1650     2.1520 hc         1 6XX       0.053950
     58 H23          0.6110     2.2950     0.8140 h1         1 6XX       0.120700
     59 H24          0.1960     1.4820    -1.9720 hn         1 6XX       0.466000
     60 H25         -2.6520     0.6460     2.3160 h4         1 6XX       0.024100
     61 H26         -5.9020     0.0490    -0.2730 h4         1 6XX       0.023100
     62 H27         -7.8460    -1.9330     2.7480 h4         1 6XX       0.018100
     63 H28         -5.2710    -3.7670     4.0570 hc         1 6XX       0.046033
     64 H29         -5.1140    -2.2900     4.9950 hc         1 6XX       0.046033
     65 H30         -6.7140    -2.9190     4.6060 hc         1 6XX       0.046033
     66 H31         -3.5730    -1.8150     2.7970 ha         1 6XX       0.122000
     67 H32         -4.6390    -1.9010    -1.2910 ha         1 6XX       0.197000
     68 H33         -4.4360    -2.0510    -4.7780 hc         1 6XX       0.052033
     69 H34         -3.5770    -3.4480    -4.1600 hc         1 6XX       0.052033
     70 H35         -5.0700    -2.9210    -3.3790 hc         1 6XX       0.052033
     71 H36         -0.5680     0.0180    -2.9700 hn         1 6XX       0.321500
     72 H4           5.2330    -1.6830    -1.5920 hc         1 6XX       0.053950
     73 C01         -1.5890     4.9540    -1.2110 c3         1 6XX       0.143900
@<TRIPOS>BOND
     1     1     7 1   
     2     1     8 1   
     3     1    38 1   
     4     1    39 1   
     5     2     3 1   
     6     2    10 1   
     7     2    16 1   
     8     2    40 1   
     9     3    11 1   
    10     3    41 1   
    11     3    72 1   
    12     4     5 1   
    13     4    73 1   
    14     5     6 1   
    15     5    17 1   
    16     5    45 1   
    17     6     7 1   
    18     6    46 1   
    19     6    47 1   
    20     7    48 1   
    21     8     9 1   
    22     8    17 1   
    23     8    49 1   
    24     9    10 1   
    25    10    50 1   
    26    10    51 1   
    27    11    12 1   
    28    11    52 1   
    29    11    53 1   
    30    12    13 1   
    31    12    14 1   
    32    12    15 1   
    33    15    16 1   
    34    15    54 1   
    35    15    55 1   
    36    16    56 1   
    37    16    57 1   
    38    17    18 1   
    39    17    58 1   
    40    18    19 1   
    41    18    59 1   
    42    19    20 ar  
    43    19    37 ar  
    44    20    21 ar  
    45    21    22 ar  
    46    21    60 1   
    47    22    23 1   
    48    22    30 ar  
    49    23    24 ar  
    50    23    29 ar  
    51    24    25 ar  
    52    24    61 1   
    53    25    26 ar  
    54    26    27 ar  
    55    26    62 1   
    56    27    28 1   
    57    27    29 ar  
    58    28    63 1   
    59    28    64 1   
    60    28    65 1   
    61    29    66 1   
    62    30    31 1   
    63    30    37 ar  
    64    31    32 2   
    65    31    67 1   
    66    32    33 1   
    67    32    34 1   
    68    33    68 1   
    69    33    69 1   
    70    33    70 1   
    71    34    35 2   
    72    34    36 1   
    73    36    37 1   
    74    36    71 1   
    75    42    73 1   
    76    43    73 1   
    77    44    73 1   
@<TRIPOS>SUBSTRUCTURE
     1 6XX         1 TEMP              0 ****  ****    0 ROOT
