@<TRIPOS>MOLECULE
6XX
   73    77     1     0     0
SMALL
No Charge or Current Charge


@<TRIPOS>ATOM
      1 C13          3.1150     3.1160    -0.8470 c6         1 6XX       0.121800
      2 C22          5.0500    -0.7010     0.4850 c6         1 6XX      -0.065700
      3 C24          6.4620    -1.1880     0.0480 c6         1 6XX      -0.070900
      4 O05         -1.1660     2.9840    -0.8850 os         1 6XX      -0.436000
      5 C06          0.1950     2.8440    -1.3650 c6         1 6XX       0.109300
      6 C08          0.9420     4.2140    -1.2860 c6         1 6XX       0.123800
      7 N11          2.3770     4.1160    -1.6640 n7         1 6XX      -0.842400
      8 C16          2.4730     1.7000    -0.9420 c6         1 6XX       0.136300
      9 O18          3.1700     0.7320    -0.1150 os         1 6XX      -0.438000
     10 C19          4.5280     0.4120    -0.4660 c3         1 6XX       0.164600
     11 C27          6.9900    -2.3150     0.9730 c6         1 6XX      -0.124400
     12 C30          6.9720    -1.8820     2.4580 c6         1 6XX       0.178000
     13 F31          7.3410    -2.9730     3.2640 f          1 6XX      -0.125500
     14 F32          7.9460    -0.8880     2.6700 f          1 6XX      -0.125500
     15 C33          5.5900    -1.3570     2.9130 c6         1 6XX      -0.124400
     16 C36          5.0700    -0.2370     1.9730 c6         1 6XX      -0.070900
     17 C39          0.9650     1.7540    -0.5380 c6         1 6XX       0.223500
     18 N41          0.3980     0.3800    -0.6760 nu         1 6XX      -0.907100
     19 C43         -0.8740     0.0740    -0.2540 ca         1 6XX       0.613900
     20 N44         -0.9020    -0.2980     1.0240 nb         1 6XX      -0.714000
     21 C45         -2.1100    -0.6300     1.5290 ca         1 6XX       0.372900
     22 C47         -3.3220    -0.6210     0.7880 cp         1 6XX      -0.100000
     23 C48         -4.6030    -0.9730     1.4720 cp         1 6XX      -0.074000
     24 C49         -5.7190    -0.0960     1.4620 ca         1 6XX       0.337900
     25 N51         -6.8930    -0.3610     2.0820 nb         1 6XX      -0.662000
     26 C52         -6.9970    -1.5290     2.7570 ca         1 6XX       0.333900
     27 C54         -5.9460    -2.4660     2.8470 ca         1 6XX      -0.124300
     28 C55         -6.1190    -3.7620     3.6240 c3         1 6XX      -0.043800
     29 C59         -4.7330    -2.1800     2.1970 ca         1 6XX      -0.070000
     30 C61         -3.2610    -0.2770    -0.5930 ca         1 6XX      -0.044800
     31 C62         -4.4220    -0.2990    -1.4960 cc         1 6XX      -0.110200
     32 C64         -4.2490     0.0480    -2.8330 cd         1 6XX      -0.163400
     33 C65         -5.3930     0.0580    -3.8240 c3         1 6XX      -0.041900
     34 C69         -2.9140     0.4250    -3.3950 c          1 6XX       0.554200
     35 O70         -2.7080     0.7370    -4.5590 o          1 6XX      -0.559000
     36 N71         -1.9010     0.3890    -2.4810 ns         1 6XX      -0.367100
     37 C73         -2.0020     0.0710    -1.1110 ca         1 6XX      -0.016400
     38 H1           4.1590     3.0760    -1.1920 h1         1 6XX       0.067700
     39 H2           3.1290     3.4360     0.2060 h1         1 6XX       0.067700
     40 H3           4.3480    -1.5410     0.3870 hc         1 6XX       0.064700
     41 H5           7.1660    -0.3440     0.0540 hc         1 6XX       0.053950
     42 H6          -3.0850     3.7260    -1.2490 h1         1 6XX       0.032033
     43 H7          -1.7700     4.8430    -1.6620 h1         1 6XX       0.032033
     44 H8          -2.1080     3.4360    -2.7040 h1         1 6XX       0.032033
     45 H9           0.1610     2.5210    -2.4160 h1         1 6XX       0.021700
     46 H10          0.4510     4.9420    -1.9470 h1         1 6XX       0.067700
     47 H11          0.8630     4.6030    -0.2590 h1         1 6XX       0.067700
     48 H12          2.4430     3.8500    -2.6560 hn         1 6XX       0.407000
     49 H14          2.5370     1.3590    -1.9860 h1         1 6XX       0.024700
     50 H15          5.1790     1.2910    -0.3750 h1         1 6XX       0.022700
     51 H16          4.5770     0.0490    -1.5020 h1         1 6XX       0.022700
     52 H17          6.3690    -3.2130     0.8480 hc         1 6XX       0.067950
     53 H18          8.0090    -2.5990     0.6770 hc         1 6XX       0.067950
     54 H19          4.8700    -2.1870     2.9250 hc         1 6XX       0.067950
     55 H20          5.6500    -0.9840     3.9440 hc         1 6XX       0.067950
     56 H21          5.7020     0.6560     2.0760 hc         1 6XX       0.053950
     57 H22          4.0620     0.0610     2.2910 hc         1 6XX       0.053950
     58 H23          0.9270     2.0650     0.5180 h1         1 6XX       0.120700
     59 H24          1.0330    -0.3110    -0.2860 hn         1 6XX       0.466000
     60 H25         -2.1200    -0.9050     2.5830 h4         1 6XX       0.024100
     61 H26         -5.6620     0.8560     0.9370 h4         1 6XX       0.023100
     62 H27         -7.9520    -1.7170     3.2450 h4         1 6XX       0.018100
     63 H28         -6.2800    -4.6070     2.9440 hc         1 6XX       0.046033
     64 H29         -5.2300    -3.9830     4.2280 hc         1 6XX       0.046033
     65 H30         -6.9770    -3.7140     4.3060 hc         1 6XX       0.046033
     66 H31         -3.9050    -2.8840     2.2440 ha         1 6XX       0.122000
     67 H32         -5.4070    -0.5980    -1.1510 ha         1 6XX       0.197000
     68 H33         -5.5260     1.0530    -4.2640 hc         1 6XX       0.052033
     69 H34         -5.2120    -0.6500    -4.6420 hc         1 6XX       0.052033
     70 H35         -6.3420    -0.2220    -3.3520 hc         1 6XX       0.052033
     71 H36         -0.9780     0.6320    -2.8180 hn         1 6XX       0.321500
     72 H4           6.4280    -1.5530    -0.9890 hc         1 6XX       0.053950
     73 C01         -2.0710     3.7880    -1.6650 c3         1 6XX       0.143900
@<TRIPOS>BOND
     1     1     7 1   
     2     1     8 1   
     3     1    38 1   
     4     1    39 1   
     5     2     3 1   
     6     2    10 1   
     7     2    16 1   
     8     2    40 1   
     9     3    11 1   
    10     3    41 1   
    11     3    72 1   
    12     4     5 1   
    13     4    73 1   
    14     5     6 1   
    15     5    17 1   
    16     5    45 1   
    17     6     7 1   
    18     6    46 1   
    19     6    47 1   
    20     7    48 1   
    21     8     9 1   
    22     8    17 1   
    23     8    49 1   
    24     9    10 1   
    25    10    50 1   
    26    10    51 1   
    27    11    12 1   
    28    11    52 1   
    29    11    53 1   
    30    12    13 1   
    31    12    14 1   
    32    12    15 1   
    33    15    16 1   
    34    15    54 1   
    35    15    55 1   
    36    16    56 1   
    37    16    57 1   
    38    17    18 1   
    39    17    58 1   
    40    18    19 1   
    41    18    59 1   
    42    19    20 ar  
    43    19    37 ar  
    44    20    21 ar  
    45    21    22 ar  
    46    21    60 1   
    47    22    23 1   
    48    22    30 ar  
    49    23    24 ar  
    50    23    29 ar  
    51    24    25 ar  
    52    24    61 1   
    53    25    26 ar  
    54    26    27 ar  
    55    26    62 1   
    56    27    28 1   
    57    27    29 ar  
    58    28    63 1   
    59    28    64 1   
    60    28    65 1   
    61    29    66 1   
    62    30    31 1   
    63    30    37 ar  
    64    31    32 2   
    65    31    67 1   
    66    32    33 1   
    67    32    34 1   
    68    33    68 1   
    69    33    69 1   
    70    33    70 1   
    71    34    35 2   
    72    34    36 1   
    73    36    37 1   
    74    36    71 1   
    75    42    73 1   
    76    43    73 1   
    77    44    73 1   
@<TRIPOS>SUBSTRUCTURE
     1 6XX         1 TEMP              0 ****  ****    0 ROOT
