@<TRIPOS>MOLECULE
6XY
   40    42     1     0     0
SMALL
No Charge or Current Charge


@<TRIPOS>ATOM
      1 C2           0.1780    -2.2420    -0.6740 ca         1 6XY      -0.126000
      2 C3           2.8430    -1.7750    -0.4520 ca         1 6XY      -0.135000
      3 N1           1.1330    -0.0840    -0.0800 na         1 6XY      -0.090000
      4 C4           2.4220    -0.5730     0.1560 ca         1 6XY       0.030000
      5 C5          -2.2130    -1.5470     0.6210 ca         1 6XY       0.016100
      6 C6          -2.1030    -2.7900    -0.0220 ca         1 6XY      -0.113000
      7 C7          -0.9050    -3.1390    -0.6680 ca         1 6XY      -0.057000
      8 C8           4.1500    -2.2520    -0.2470 ca         1 6XY      -0.055000
      9 C9           5.0400    -1.5350     0.5710 ca         1 6XY      -0.135000
     10 C10          4.6230    -0.3450     1.1890 ca         1 6XY      -0.075000
     11 C12          0.9780     1.1650    -0.8570 c3         1 6XY       0.070600
     12 C13          0.6700     2.4190    -0.0080 c3         1 6XY      -0.114400
     13 C14          0.5410     3.6910    -0.8730 c3         1 6XY       0.167800
     14 C15          1.0230     5.3310     0.9360 c3         1 6XY       0.149600
     15 C16         -0.2440     6.0130    -1.0510 c3         1 6XY       0.149600
     16 N2           0.0930     4.8990    -0.1360 n3         1 6XY      -0.712600
     17 C1           0.0660    -0.9860    -0.0400 ca         1 6XY       0.034000
     18 C17         -1.1350    -0.6480     0.6140 ca         1 6XY      -0.141000
     19 S1           1.7110    -2.7180    -1.4680 ss         1 6XY       0.034000
     20 C11          3.3180     0.1350     0.9810 ca         1 6XY      -0.161000
     21 H2          -2.9400    -3.4840    -0.0160 ha         1 6XY       0.134000
     22 H3          -0.8160    -4.1070    -1.1580 ha         1 6XY       0.128000
     23 H4           4.4730    -3.1790    -0.7160 ha         1 6XY       0.125000
     24 H5           6.0500    -1.9070     0.7310 ha         1 6XY       0.119000
     25 H6           5.3110     0.2070     1.8270 ha         1 6XY       0.114000
     26 H7           1.9020     1.3380    -1.4240 h1         1 6XY       0.059200
     27 H8           0.1720     1.0220    -1.5880 h1         1 6XY       0.059200
     28 H9          -0.2650     2.2720     0.5430 hc         1 6XY       0.059700
     29 H10          1.4650     2.5570     0.7300 hc         1 6XY       0.059700
     30 H11          1.5070     3.8860    -1.3600 h1         1 6XY       0.029200
     31 H12         -0.1810     3.4740    -1.6730 h1         1 6XY       0.029200
     32 H13          0.6440     6.2320     1.4370 h1         1 6XY       0.031533
     33 H14          1.1350     4.5540     1.7030 h1         1 6XY       0.031533
     34 H15          2.0150     5.5590     0.5250 h1         1 6XY       0.031533
     35 H16          0.6460     6.3540    -1.5980 h1         1 6XY       0.031533
     36 H17         -0.9990     5.7000    -1.7840 h1         1 6XY       0.031533
     37 H18         -0.6520     6.8660    -0.4920 h1         1 6XY       0.031533
     38 H20         -1.2350     0.3060     1.1220 ha         1 6XY       0.135000
     39 H21          3.0080     1.0550     1.4680 ha         1 6XY       0.118000
     40 Br1         -3.8390    -1.0750     1.5100 br         1 6XY      -0.095100
@<TRIPOS>BOND
     1     1     7 ar  
     2     1    17 ar  
     3     1    19 1   
     4     2     4 ar  
     5     2     8 ar  
     6     2    19 1   
     7     3     4 1   
     8     3    11 1   
     9     3    17 1   
    10     4    20 ar  
    11     5     6 ar  
    12     5    18 ar  
    13     5    40 1   
    14     6     7 ar  
    15     6    21 1   
    16     7    22 1   
    17     8     9 ar  
    18     8    23 1   
    19     9    10 ar  
    20     9    24 1   
    21    10    20 ar  
    22    10    25 1   
    23    11    12 1   
    24    11    26 1   
    25    11    27 1   
    26    12    13 1   
    27    12    28 1   
    28    12    29 1   
    29    13    16 1   
    30    13    30 1   
    31    13    31 1   
    32    14    16 1   
    33    14    32 1   
    34    14    33 1   
    35    14    34 1   
    36    15    16 1   
    37    15    35 1   
    38    15    36 1   
    39    15    37 1   
    40    17    18 ar  
    41    18    38 1   
    42    20    39 1   
@<TRIPOS>SUBSTRUCTURE
     1 6XY         1 TEMP              0 ****  ****    0 ROOT
