@<TRIPOS>MOLECULE
6XY
   40    42     1     0     0
SMALL
bcc


@<TRIPOS>ATOM
      1 C2           0.2080    -2.4200    -0.2140 ca         1 6XY       0.018900
      2 C3           2.8000    -1.7980    -0.1780 ca         1 6XY       0.009900
      3 N1           1.0480    -0.1920    -0.7000 na         1 6XY      -0.162100
      4 C4           2.3650    -0.4730    -0.3110 ca         1 6XY       0.080700
      5 C5          -2.3120    -1.4240     0.2370 ca         1 6XY       0.016100
      6 C6          -2.1010    -2.7820     0.3900 ca         1 6XY      -0.131000
      7 C7          -0.8190    -3.2660     0.1690 ca         1 6XY      -0.075000
      8 C8           4.0870    -2.0980     0.2450 ca         1 6XY      -0.073000
      9 C9           4.9980    -1.0810     0.4920 ca         1 6XY      -0.153000
     10 C10          4.5970     0.2330     0.3230 ca         1 6XY      -0.093000
     11 C12          0.7400     1.1500    -1.1720 c3         1 6XY       0.041300
     12 C13          0.4900     2.2200    -0.1020 c3         1 6XY      -0.114400
     13 C14          0.6360     3.6040    -0.7210 c3         1 6XY       0.167800
     14 C15          1.0890     4.8190     1.3100 c3         1 6XY       0.149600
     15 C16          0.1260     5.9290    -0.5640 c3         1 6XY       0.149600
     16 N2           0.2240     4.6790     0.1580 n3         1 6XY      -0.712600
     17 C1           0.0010    -1.0390    -0.3370 ca         1 6XY       0.084700
     18 C17         -1.2870    -0.5530    -0.1010 ca         1 6XY      -0.159000
     19 S1           1.7490    -3.1070    -0.7010 ss         1 6XY      -0.255800
     20 C11          3.2970     0.5370    -0.0570 ca         1 6XY      -0.179000
     21 H2          -2.8980    -3.4580     0.6640 ha         1 6XY       0.152000
     22 H3          -0.6270    -4.3260     0.2710 ha         1 6XY       0.146000
     23 H4           4.3800    -3.1340     0.3560 ha         1 6XY       0.143000
     24 H5           6.0060    -1.3200     0.8030 ha         1 6XY       0.137000
     25 H6           5.2920     1.0440     0.4990 ha         1 6XY       0.132000
     26 H7           1.5690     1.4610    -1.8110 h1         1 6XY       0.059200
     27 H8          -0.1250     1.0790    -1.8340 h1         1 6XY       0.059200
     28 H9          -0.5140     2.1330     0.3200 hc         1 6XY       0.059700
     29 H10          1.1790     2.0880     0.7330 hc         1 6XY       0.059700
     30 H11          1.6770     3.7370    -1.0720 h1         1 6XY       0.029200
     31 H12          0.0060     3.6470    -1.6150 h1         1 6XY       0.029200
     32 H13          0.7370     5.6380     1.9370 h1         1 6XY       0.031533
     33 H14          1.0780     3.9170     1.9210 h1         1 6XY       0.031533
     34 H15          2.1370     5.0300     1.0400 h1         1 6XY       0.031533
     35 H16          1.0880     6.2750    -0.9740 h1         1 6XY       0.031533
     36 H17         -0.5720     5.8270    -1.3970 h1         1 6XY       0.031533
     37 H18         -0.2540     6.7120     0.0940 h1         1 6XY       0.031533
     38 H20         -1.4980     0.5020    -0.1810 ha         1 6XY       0.153000
     39 H21          3.0330     1.5790    -0.1590 ha         1 6XY       0.136000
     40 BR1         -4.0420    -0.7190     0.5180 br         1 6XY      -0.095100
@<TRIPOS>BOND
     1     1     7 ar  
     2     1    17 ar  
     3     1    19 1   
     4     2     4 ar  
     5     2     8 ar  
     6     2    19 1   
     7     3     4 1   
     8     3    11 1   
     9     3    17 1   
    10     4    20 ar  
    11     5     6 ar  
    12     5    18 ar  
    13     5    40 1   
    14     6     7 ar  
    15     6    21 1   
    16     7    22 1   
    17     8     9 ar  
    18     8    23 1   
    19     9    10 ar  
    20     9    24 1   
    21    10    20 ar  
    22    10    25 1   
    23    11    12 1   
    24    11    26 1   
    25    11    27 1   
    26    12    13 1   
    27    12    28 1   
    28    12    29 1   
    29    13    16 1   
    30    13    30 1   
    31    13    31 1   
    32    14    16 1   
    33    14    32 1   
    34    14    33 1   
    35    14    34 1   
    36    15    16 1   
    37    15    35 1   
    38    15    36 1   
    39    15    37 1   
    40    17    18 ar  
    41    18    38 1   
    42    20    39 1   
@<TRIPOS>SUBSTRUCTURE
     1 6XY         1 TEMP              0 ****  ****    0 ROOT
