@<TRIPOS>MOLECULE
6XZ
   50    53     1     0     0
SMALL
No Charge or Current Charge


@<TRIPOS>ATOM
      1 CAA         -9.0180     1.2480     1.1440 c3         1 6XZ       0.149900
      2 OAQ         -8.3700    -0.0170     0.9190 os         1 6XZ      -0.342100
      3 CAS         -7.0240    -0.1130     0.6290 ca         1 6XZ       0.114100
      4 CAF         -6.1830     1.0160     0.5290 ca         1 6XZ      -0.145000
      5 CAH         -4.8170     0.8510     0.2300 ca         1 6XZ      -0.115000
      6 CAE         -6.4850    -1.3930     0.4270 ca         1 6XZ      -0.145000
      7 CAG         -5.1200    -1.5530     0.1270 ca         1 6XZ      -0.115000
      8 CAU         -4.2690    -0.4320     0.0280 ca         1 6XZ       0.244000
      9 NBB         -2.8910    -0.5720    -0.2730 nh         1 6XZ      -0.780400
     10 CAO         -2.3730    -1.7620    -1.0230 c6         1 6XZ       0.192800
     11 CAM         -0.9910    -1.4920    -1.7030 c6         1 6XZ       0.163800
     12 CAN         -1.8600     0.0320     0.6320 c6         1 6XZ       0.192800
     13 CAL         -0.4900     0.2650    -0.0840 c6         1 6XZ       0.163800
     14 NBA          0.0350    -0.9700    -0.7490 n3         1 6XZ      -0.731600
     15 CAP          1.3600    -0.7660    -1.3920 c3         1 6XZ       0.204000
     16 CAV          2.5070    -0.5110    -0.4220 cc         1 6XZ       0.035600
     17 CAK          2.4960    -0.9940     0.8750 cd         1 6XZ      -0.317200
     18 CAX          3.5450    -0.7630     1.8740 c          1 6XZ       0.677300
     19 OAB          3.4710    -1.2010     3.0120 o          1 6XZ      -0.485000
     20 OAR          4.6060    -0.0140     1.4630 os         1 6XZ      -0.361200
     21 CAZ          4.7360     0.4700     0.1860 ca         1 6XZ       0.125100
     22 CAY          3.7280     0.2360    -0.7770 ca         1 6XZ      -0.149800
     23 CAJ          3.9320     0.7240    -2.0910 ca         1 6XZ      -0.057000
     24 CAI          5.0960     1.4410    -2.4200 ca         1 6XZ      -0.144000
     25 CAT          6.0770     1.6770    -1.4490 ca         1 6XZ       0.162100
     26 OAC          7.2070     2.3700    -1.7650 oh         1 6XZ      -0.525100
     27 CAW          5.9040     1.1900    -0.1420 ca         1 6XZ       0.024100
     28 OAD          6.8730     1.4100     0.8090 oh         1 6XZ      -0.554100
     29 H1         -10.0830     1.0970     1.3580 h1         1 6XZ       0.039033
     30 H2          -8.5700     1.7700     1.9990 h1         1 6XZ       0.039033
     31 H3          -8.9380     1.8910     0.2570 h1         1 6XZ       0.039033
     32 H4          -6.5660     2.0210     0.6750 ha         1 6XZ       0.120500
     33 H5          -4.1840     1.7280     0.1430 ha         1 6XZ       0.114000
     34 H6          -7.1280    -2.2660     0.5040 ha         1 6XZ       0.120500
     35 H7          -4.7270    -2.5560    -0.0140 ha         1 6XZ       0.114000
     36 H8          -2.2640    -2.6140    -0.3360 h1         1 6XZ       0.045200
     37 H9          -3.0870    -2.0590    -1.8050 h1         1 6XZ       0.045200
     38 H10         -0.6420    -2.4290    -2.1620 h1         1 6XZ       0.041950
     39 H11         -1.1420    -0.7740    -2.5230 h1         1 6XZ       0.041950
     40 H12         -2.2060     0.9960     1.0320 h1         1 6XZ       0.045200
     41 H13         -1.6960    -0.6310     1.4940 h1         1 6XZ       0.045200
     42 H14         -0.6200     1.0650    -0.8270 h1         1 6XZ       0.041950
     43 H15          0.2280     0.6390     0.6610 h1         1 6XZ       0.041950
     44 H17          1.6270    -1.6520    -1.9830 h1         1 6XZ       0.050700
     45 H18          1.2820     0.0750    -2.0930 h1         1 6XZ       0.050700
     46 H19          1.6670    -1.5810     1.2480 ha         1 6XZ       0.233000
     47 H20          3.2010     0.5540    -2.8770 ha         1 6XZ       0.122000
     48 H21          5.2380     1.8120    -3.4320 ha         1 6XZ       0.138000
     49 H22          7.7400     2.4040    -0.9390 ho         1 6XZ       0.491000
     50 H23          6.5690     0.9910     1.6480 ho         1 6XZ       0.499000
@<TRIPOS>BOND
     1     1     2 1   
     2     1    29 1   
     3     1    30 1   
     4     1    31 1   
     5     2     3 1   
     6     3     4 ar  
     7     3     6 ar  
     8     4     5 ar  
     9     4    32 1   
    10     5     8 ar  
    11     5    33 1   
    12     6     7 ar  
    13     6    34 1   
    14     7     8 ar  
    15     7    35 1   
    16     8     9 1   
    17     9    10 1   
    18     9    12 1   
    19    10    11 1   
    20    10    36 1   
    21    10    37 1   
    22    11    14 1   
    23    11    38 1   
    24    11    39 1   
    25    12    13 1   
    26    12    40 1   
    27    12    41 1   
    28    13    14 1   
    29    13    42 1   
    30    13    43 1   
    31    14    15 1   
    32    15    16 1   
    33    15    44 1   
    34    15    45 1   
    35    16    17 2   
    36    16    22 1   
    37    17    18 1   
    38    17    46 1   
    39    18    19 2   
    40    18    20 1   
    41    20    21 1   
    42    21    22 ar  
    43    21    27 ar  
    44    22    23 ar  
    45    23    24 ar  
    46    23    47 1   
    47    24    25 ar  
    48    24    48 1   
    49    25    26 1   
    50    25    27 ar  
    51    26    49 1   
    52    27    28 1   
    53    28    50 1   
@<TRIPOS>SUBSTRUCTURE
     1 6XZ         1 TEMP              0 ****  ****    0 ROOT
