@<TRIPOS>MOLECULE
6XZ
   50    53     1     0     0
SMALL
abcg2


@<TRIPOS>ATOM
      1 CAA         -8.9420     0.6840     1.3620 c3         1 6XZ       0.149900
      2 OAQ         -8.2070    -0.4960     1.1190 os         1 6XZ      -0.342100
      3 CAS         -6.9130    -0.3790     0.7430 ca         1 6XZ       0.114100
      4 CAF         -6.2310     0.8300     0.6200 ca         1 6XZ      -0.145000
      5 CAH         -4.9040     0.8440     0.2140 ca         1 6XZ      -0.115000
      6 CAE         -6.2320    -1.5580     0.4580 ca         1 6XZ      -0.145000
      7 CAG         -4.9010    -1.5360     0.0700 ca         1 6XZ      -0.115000
      8 CAU         -4.2040    -0.3310    -0.0670 ca         1 6XZ       0.244000
      9 NBB         -2.8690    -0.2650    -0.4980 nh         1 6XZ      -0.780400
     10 CAO         -2.2730    -1.4860    -0.9970 c6         1 6XZ       0.192800
     11 CAM         -0.9680    -1.1860    -1.7100 c6         1 6XZ       0.163800
     12 CAN         -1.9520     0.4630     0.3660 c6         1 6XZ       0.192800
     13 CAL         -0.6490     0.7410    -0.3530 c6         1 6XZ       0.163800
     14 NBA         -0.0530    -0.4960    -0.8230 n3         1 6XZ      -0.731600
     15 CAP          1.2500    -0.2930    -1.4010 c3         1 6XZ       0.204000
     16 CAV          2.3470    -0.2000    -0.3760 cc         1 6XZ       0.035600
     17 CAK          2.1400    -0.5580     0.9090 cd         1 6XZ      -0.317200
     18 CAX          3.1800    -0.4890     1.9050 c          1 6XZ       0.677300
     19 OAB          3.0760    -0.7850     3.0700 o          1 6XZ      -0.485000
     20 OAR          4.3970    -0.0430     1.4870 os         1 6XZ      -0.361200
     21 CAZ          4.6460     0.3060     0.2030 ca         1 6XZ       0.125100
     22 CAY          3.6580     0.2490    -0.7810 ca         1 6XZ      -0.149800
     23 CAJ          4.0100     0.6210    -2.0830 ca         1 6XZ      -0.057000
     24 CAI          5.2930     1.0310    -2.3750 ca         1 6XZ      -0.144000
     25 CAT          6.2660     1.0870    -1.3770 ca         1 6XZ       0.162100
     26 OAC          7.5020     1.4930    -1.7040 oh         1 6XZ      -0.525100
     27 CAW          5.9440     0.7200    -0.0710 ca         1 6XZ       0.024100
     28 OAD          6.9230     0.7890     0.8540 oh         1 6XZ      -0.554100
     29 H1          -9.9500     0.3750     1.6280 h1         1 6XZ       0.039033
     30 H2          -8.5260     1.2660     2.1890 h1         1 6XZ       0.039033
     31 H3          -8.9940     1.3240     0.4760 h1         1 6XZ       0.039033
     32 H4          -6.7140     1.7760     0.8220 ha         1 6XZ       0.120500
     33 H5          -4.4170     1.8040     0.0990 ha         1 6XZ       0.114000
     34 H6          -6.7450    -2.5070     0.5530 ha         1 6XZ       0.120500
     35 H7          -4.4180    -2.4830    -0.1240 ha         1 6XZ       0.114000
     36 H8          -2.0830    -2.2160    -0.1940 h1         1 6XZ       0.045200
     37 H9          -2.9510    -1.9560    -1.7110 h1         1 6XZ       0.045200
     38 H10         -0.5180    -2.1300    -2.0250 h1         1 6XZ       0.041950
     39 H11         -1.1810    -0.6040    -2.6220 h1         1 6XZ       0.041950
     40 H12         -2.3900     1.4150     0.6610 h1         1 6XZ       0.045200
     41 H13         -1.7440    -0.1000     1.2900 h1         1 6XZ       0.045200
     42 H14         -0.8310     1.4410    -1.1870 h1         1 6XZ       0.041950
     43 H15          0.0330     1.2390     0.3390 h1         1 6XZ       0.041950
     44 H17          1.4880    -1.1400    -2.0540 h1         1 6XZ       0.050700
     45 H18          1.2800     0.5970    -2.0490 h1         1 6XZ       0.050700
     46 H19          1.1730    -0.9120     1.2360 ha         1 6XZ       0.233000
     47 H20          3.2790     0.5880    -2.8770 ha         1 6XZ       0.122000
     48 H21          5.5610     1.3150    -3.3840 ha         1 6XZ       0.138000
     49 H22          8.0810     1.5010    -0.9320 ho         1 6XZ       0.491000
     50 H23          6.6160     0.5060     1.7230 ho         1 6XZ       0.499000
@<TRIPOS>BOND
     1     1     2 1   
     2     1    29 1   
     3     1    30 1   
     4     1    31 1   
     5     2     3 1   
     6     3     4 ar  
     7     3     6 ar  
     8     4     5 ar  
     9     4    32 1   
    10     5     8 ar  
    11     5    33 1   
    12     6     7 ar  
    13     6    34 1   
    14     7     8 ar  
    15     7    35 1   
    16     8     9 1   
    17     9    10 1   
    18     9    12 1   
    19    10    11 1   
    20    10    36 1   
    21    10    37 1   
    22    11    14 1   
    23    11    38 1   
    24    11    39 1   
    25    12    13 1   
    26    12    40 1   
    27    12    41 1   
    28    13    14 1   
    29    13    42 1   
    30    13    43 1   
    31    14    15 1   
    32    15    16 1   
    33    15    44 1   
    34    15    45 1   
    35    16    17 2   
    36    16    22 1   
    37    17    18 1   
    38    17    46 1   
    39    18    19 2   
    40    18    20 1   
    41    20    21 1   
    42    21    22 ar  
    43    21    27 ar  
    44    22    23 ar  
    45    23    24 ar  
    46    23    47 1   
    47    24    25 ar  
    48    24    48 1   
    49    25    26 1   
    50    25    27 ar  
    51    26    49 1   
    52    27    28 1   
    53    28    50 1   
@<TRIPOS>SUBSTRUCTURE
     1 6XZ         1 TEMP              0 ****  ****    0 ROOT
