@<TRIPOS>MOLECULE
6Y0
   31    32     1     0     0
SMALL
No Charge or Current Charge


@<TRIPOS>ATOM
      1 CAA          5.2780    -1.6620     1.0980 c3         1 6Y0      -0.089100
      2 CAH          4.5470    -1.0220    -0.0980 c3         1 6Y0      -0.076400
      3 CAI          3.1720    -0.4300     0.2810 c3         1 6Y0      -0.075400
      4 CAJ          2.4390     0.2160    -0.9170 c3         1 6Y0      -0.049200
      5 CAM          1.0830     0.7750    -0.5490 cc         1 6Y0       0.043600
      6 CAG          0.8930     2.1270    -0.3580 cd         1 6Y0      -0.331200
      7 CAO         -0.3820     2.7530     0.0210 c          1 6Y0       0.670300
      8 OAB         -0.4920     3.9590     0.1800 o          1 6Y0      -0.484000
      9 OAK         -1.4340     1.9080     0.1930 os         1 6Y0      -0.312200
     10 CAQ         -1.3500     0.5480     0.0230 ca         1 6Y0       0.161100
     11 CAP         -0.1220    -0.0480    -0.3460 ca         1 6Y0      -0.145800
     12 CAF         -0.0830    -1.4520    -0.5220 ca         1 6Y0      -0.054000
     13 CAE         -1.2330    -2.2370    -0.3270 ca         1 6Y0      -0.186000
     14 CAL         -2.4420    -1.6350     0.0430 ca         1 6Y0       0.081100
     15 OAC         -3.5610    -2.4020     0.2310 oh         1 6Y0      -0.548100
     16 CAN         -2.5070    -0.2410     0.2180 ca         1 6Y0       0.096100
     17 OAD         -3.7050     0.3240     0.5770 oh         1 6Y0      -0.504100
     18 H1           5.4580    -0.9210     1.8850 hc         1 6Y0       0.034033
     19 H2           4.6850    -2.4820     1.5210 hc         1 6Y0       0.034033
     20 H3           6.2470    -2.0680     0.7810 hc         1 6Y0       0.034033
     21 H4           5.1800    -0.2310    -0.5210 hc         1 6Y0       0.037700
     22 H5           4.4140    -1.7790    -0.8810 hc         1 6Y0       0.037700
     23 H6           2.5470    -1.2200     0.7130 hc         1 6Y0       0.046700
     24 H7           3.3080     0.3270     1.0640 hc         1 6Y0       0.046700
     25 H8           3.0700     1.0170    -1.3230 hc         1 6Y0       0.055700
     26 H9           2.3370    -0.5140    -1.7270 hc         1 6Y0       0.055700
     27 H10          1.7040     2.8350    -0.4730 ha         1 6Y0       0.212000
     28 H11          0.8360    -1.9550    -0.8100 ha         1 6Y0       0.124000
     29 H12         -1.1720    -3.3140    -0.4680 ha         1 6Y0       0.120000
     30 H13         -3.3310    -3.3440     0.0650 ho         1 6Y0       0.481000
     31 H14         -4.3470    -0.4180     0.6510 ho         1 6Y0       0.480000
@<TRIPOS>BOND
     1     1     2 1   
     2     1    18 1   
     3     1    19 1   
     4     1    20 1   
     5     2     3 1   
     6     2    21 1   
     7     2    22 1   
     8     3     4 1   
     9     3    23 1   
    10     3    24 1   
    11     4     5 1   
    12     4    25 1   
    13     4    26 1   
    14     5     6 2   
    15     5    11 1   
    16     6     7 1   
    17     6    27 1   
    18     7     8 2   
    19     7     9 1   
    20     9    10 1   
    21    10    11 ar  
    22    10    16 ar  
    23    11    12 ar  
    24    12    13 ar  
    25    12    28 1   
    26    13    14 ar  
    27    13    29 1   
    28    14    15 1   
    29    14    16 ar  
    30    15    30 1   
    31    16    17 1   
    32    17    31 1   
@<TRIPOS>SUBSTRUCTURE
     1 6Y0         1 TEMP              0 ****  ****    0 ROOT
