@<TRIPOS>MOLECULE
6Y0
   31    32     1     0     0
SMALL
abcg2


@<TRIPOS>ATOM
      1 CAA          5.2130    -1.5910     1.1080 c3         1 6Y0      -0.089100
      2 CAH          4.5000    -0.9740    -0.0870 c3         1 6Y0      -0.076400
      3 CAI          3.1280    -0.4210     0.2790 c3         1 6Y0      -0.075400
      4 CAJ          2.4070     0.1820    -0.9330 c3         1 6Y0      -0.049200
      5 CAM          1.0710     0.7490    -0.5660 cc         1 6Y0       0.043600
      6 CAG          0.9220     2.0760    -0.3580 cd         1 6Y0      -0.331200
      7 CAO         -0.3310     2.6590     0.0530 c          1 6Y0       0.670300
      8 OAB         -0.5370     3.8310     0.2590 o          1 6Y0      -0.484000
      9 OAK         -1.3730     1.8070     0.2290 os         1 6Y0      -0.312200
     10 CAQ         -1.2700     0.4750     0.0210 ca         1 6Y0       0.161100
     11 CAP         -0.0710    -0.1170    -0.3820 ca         1 6Y0      -0.145800
     12 CAF         -0.0560    -1.5000    -0.5850 ca         1 6Y0      -0.054000
     13 CAE         -1.1930    -2.2530    -0.3830 ca         1 6Y0      -0.186000
     14 CAL         -2.3780    -1.6440     0.0260 ca         1 6Y0       0.081100
     15 OAC         -3.5250    -2.3090     0.2450 oh         1 6Y0      -0.548100
     16 CAN         -2.4290    -0.2650     0.2310 ca         1 6Y0       0.096100
     17 OAD         -3.5430     0.3810     0.6190 oh         1 6Y0      -0.504100
     18 H1           5.3420    -0.8620     1.9110 hc         1 6Y0       0.034033
     19 H2           4.6440    -2.4300     1.5120 hc         1 6Y0       0.034033
     20 H3           6.2010    -1.9620     0.8350 hc         1 6Y0       0.034033
     21 H4           5.1110    -0.1720    -0.5120 hc         1 6Y0       0.037700
     22 H5           4.3880    -1.7240    -0.8760 hc         1 6Y0       0.037700
     23 H6           2.5220    -1.2150     0.7230 hc         1 6Y0       0.046700
     24 H7           3.2360     0.3490     1.0480 hc         1 6Y0       0.046700
     25 H8           3.0250     0.9760    -1.3560 hc         1 6Y0       0.055700
     26 H9           2.2950    -0.5770    -1.7120 hc         1 6Y0       0.055700
     27 H10          1.7520     2.7580    -0.4870 ha         1 6Y0       0.212000
     28 H11          0.8490    -1.9940    -0.9100 ha         1 6Y0       0.124000
     29 H12         -1.1690    -3.3240    -0.5420 ha         1 6Y0       0.120000
     30 H13         -3.4170    -3.2530     0.0810 ho         1 6Y0       0.481000
     31 H14         -4.2710    -0.2420     0.7330 ho         1 6Y0       0.480000
@<TRIPOS>BOND
     1     1     2 1   
     2     1    18 1   
     3     1    19 1   
     4     1    20 1   
     5     2     3 1   
     6     2    21 1   
     7     2    22 1   
     8     3     4 1   
     9     3    23 1   
    10     3    24 1   
    11     4     5 1   
    12     4    25 1   
    13     4    26 1   
    14     5     6 2   
    15     5    11 1   
    16     6     7 1   
    17     6    27 1   
    18     7     8 2   
    19     7     9 1   
    20     9    10 1   
    21    10    11 ar  
    22    10    16 ar  
    23    11    12 ar  
    24    12    13 ar  
    25    12    28 1   
    26    13    14 ar  
    27    13    29 1   
    28    14    15 1   
    29    14    16 ar  
    30    15    30 1   
    31    16    17 1   
    32    17    31 1   
@<TRIPOS>SUBSTRUCTURE
     1 6Y0         1 TEMP              0 ****  ****    0 ROOT
