@<TRIPOS>MOLECULE
6Y2
   69    71     1     0     0
SMALL
No Charge or Current Charge


@<TRIPOS>ATOM
      1 CAB         -4.1880     0.4500     0.2320 ca         1 6Y2       0.188100
      2 CAC         -5.3730     0.9910     0.7520 ca         1 6Y2      -0.176500
      3 CAD         -6.5100     0.1880     0.9400 ca         1 6Y2      -0.012500
      4 CAE         -6.4740    -1.1840     0.6030 ca         1 6Y2      -0.221200
      5 CAF         -5.2800    -1.7310     0.0770 ca         1 6Y2      -0.012500
      6 CAG         -4.1470    -0.9200    -0.1090 ca         1 6Y2      -0.176500
      7 CAL         -1.8560     0.8460    -0.4460 c6         1 6Y2       0.380300
      8 CAO         -0.9120     2.0530    -0.7270 c6         1 6Y2       0.035700
      9 CAW          1.0560     0.4770    -0.1870 c6         1 6Y2       0.153300
     10 CBA         -0.0090    -0.6370     0.0790 c6         1 6Y2       0.154300
     11 CBK          2.7530    -4.3190    -2.0820 c3         1 6Y2      -0.185100
     12 CBG          3.3170    -2.9130    -1.9410 c          1 6Y2       0.611100
     13 OBH          3.3200    -2.1100    -2.8620 o          1 6Y2      -0.581100
     14 N2           3.8310    -2.6230    -0.7000 ns         1 6Y2      -0.504900
     15 C2           4.4010    -1.3140    -0.2810 c6         1 6Y2       0.088700
     16 C3           5.5190    -1.5160     0.7930 c6         1 6Y2       0.172300
     17 O3           6.5900    -2.3180     0.2740 oh         1 6Y2      -0.622000
     18 C4           6.0900    -0.1490     1.2730 c6         1 6Y2       0.107300
     19 O4           6.8160     0.4680     0.1820 oh         1 6Y2      -0.683000
     20 C5           4.8950     0.7250     1.7770 c6         1 6Y2       0.147300
     21 C6           5.3260     2.1390     2.2890 c3         1 6Y2       0.171600
     22 O6           4.2250     2.9080     2.8110 oh         1 6Y2      -0.703000
     23 O5           3.9180     0.8840     0.7200 os         1 6Y2      -0.434000
     24 C1           3.3150    -0.3550     0.3050 c6         1 6Y2       0.388300
     25 O1           2.3100    -0.0600    -0.6840 os         1 6Y2      -0.419000
     26 OBB         -1.2430    -0.0220     0.5260 os         1 6Y2      -0.460000
     27 CBE          0.4100    -1.7040     1.1430 c3         1 6Y2       0.168600
     28 OBF         -0.6310    -2.6600     1.4290 oh         1 6Y2      -0.713000
     29 CAS          0.4670     1.5100    -1.2050 c6         1 6Y2       0.162300
     30 OAT          1.3740     2.6050    -1.4360 oh         1 6Y2      -0.677000
     31 NAP         -1.4890     2.9990    -1.7220 ns         1 6Y2      -0.514900
     32 CBI         -2.2400     4.1140    -1.4190 c          1 6Y2       0.608100
     33 OBJ         -2.4110     4.4990    -0.2720 o          1 6Y2      -0.579100
     34 CBL         -2.8260     4.8360    -2.6230 c3         1 6Y2      -0.182100
     35 OAA         -3.1170     1.3060     0.0680 os         1 6Y2      -0.315100
     36 NAH         -7.6820    -2.0470     0.8000 no         1 6Y2       0.701200
     37 OAJ         -7.6050    -3.2420     0.4890 o          1 6Y2      -0.406500
     38 OAI         -8.7040    -1.5250     1.2650 o          1 6Y2      -0.406500
     39 H1          -5.4080     2.0460     1.0120 ha         1 6Y2       0.146500
     40 H2          -7.4140     0.6410     1.3470 ha         1 6Y2       0.151000
     41 H3          -5.2210    -2.7850    -0.1910 ha         1 6Y2       0.151000
     42 H4          -3.2480    -1.3760    -0.5110 ha         1 6Y2       0.146500
     43 H5          -2.0260     0.2970    -1.3850 h2         1 6Y2       0.035700
     44 H6          -0.7650     2.5830     0.2260 h1         1 6Y2       0.124700
     45 H7           1.2460     1.0120     0.7560 h1         1 6Y2       0.080700
     46 H8          -0.2050    -1.1720    -0.8620 h1         1 6Y2       0.066700
     47 H9           3.5250    -5.0440    -1.7990 hc         1 6Y2       0.059700
     48 H10          1.9910    -4.4770    -1.3110 hc         1 6Y2       0.059700
     49 H11          2.3600    -4.5180    -3.0860 hc         1 6Y2       0.059700
     50 H12          3.8220    -3.3780    -0.0250 hn         1 6Y2       0.300500
     51 H13          4.8410    -0.8180    -1.1580 h1         1 6Y2       0.138700
     52 H14          5.0720    -2.0260     1.6590 h1         1 6Y2       0.019700
     53 H15          7.1900    -1.6700    -0.1600 ho         1 6Y2       0.442000
     54 H16          6.7700    -0.3330     2.1190 h1         1 6Y2       0.032700
     55 H17          7.3520     1.2060     0.5550 ho         1 6Y2       0.503000
     56 H18          4.4130     0.2070     2.6200 h1         1 6Y2       0.044700
     57 H19          6.0870     2.0020     3.0680 h1         1 6Y2       0.027200
     58 H20          5.7980     2.6810     1.4590 h1         1 6Y2       0.027200
     59 H21          4.5770     3.8030     3.0280 ho         1 6Y2       0.508000
     60 H22          2.8530    -0.8350     1.1770 h2         1 6Y2       0.004700
     61 H23          1.2940    -2.2350     0.7680 h1         1 6Y2       0.033200
     62 H24          0.7020    -1.1770     2.0620 h1         1 6Y2       0.033200
     63 H25         -0.3240    -3.2060     2.1890 ho         1 6Y2       0.507000
     64 H26          0.3020     0.9770    -2.1530 h1         1 6Y2       0.039700
     65 H27          0.8580     3.3060    -1.8940 ho         1 6Y2       0.510000
     66 H28         -1.4420     2.7550    -2.7070 hn         1 6Y2       0.308500
     67 H29         -3.4280     4.1280    -3.2040 hc         1 6Y2       0.062700
     68 H30         -3.4050     5.7230    -2.3420 hc         1 6Y2       0.062700
     69 H31         -2.0180     5.0830    -3.3200 hc         1 6Y2       0.062700
@<TRIPOS>BOND
     1     1     2 ar  
     2     1     6 ar  
     3     1    35 1   
     4     2     3 ar  
     5     2    39 1   
     6     3     4 ar  
     7     3    40 1   
     8     4     5 ar  
     9     4    36 1   
    10     5     6 ar  
    11     5    41 1   
    12     6    42 1   
    13     7     8 1   
    14     7    26 1   
    15     7    35 1   
    16     7    43 1   
    17     8    29 1   
    18     8    31 1   
    19     8    44 1   
    20     9    10 1   
    21     9    25 1   
    22     9    29 1   
    23     9    45 1   
    24    10    26 1   
    25    10    27 1   
    26    10    46 1   
    27    11    12 1   
    28    11    47 1   
    29    11    48 1   
    30    11    49 1   
    31    12    13 2   
    32    12    14 1   
    33    14    15 1   
    34    14    50 1   
    35    15    16 1   
    36    15    24 1   
    37    15    51 1   
    38    16    17 1   
    39    16    18 1   
    40    16    52 1   
    41    17    53 1   
    42    18    19 1   
    43    18    20 1   
    44    18    54 1   
    45    19    55 1   
    46    20    21 1   
    47    20    23 1   
    48    20    56 1   
    49    21    22 1   
    50    21    57 1   
    51    21    58 1   
    52    22    59 1   
    53    23    24 1   
    54    24    25 1   
    55    24    60 1   
    56    27    28 1   
    57    27    61 1   
    58    27    62 1   
    59    28    63 1   
    60    29    30 1   
    61    29    64 1   
    62    30    65 1   
    63    31    32 1   
    64    31    66 1   
    65    32    33 2   
    66    32    34 1   
    67    34    67 1   
    68    34    68 1   
    69    34    69 1   
    70    36    37 1   
    71    36    38 1   
@<TRIPOS>SUBSTRUCTURE
     1 6Y2         1 TEMP              0 ****  ****    0 ROOT
