@<TRIPOS>MOLECULE
6Y2
   69    71     1     0     0
SMALL
abcg2


@<TRIPOS>ATOM
      1 CAB         -4.1280     0.2750     0.1520 ca         1 6Y2       0.188100
      2 CAC         -5.3620     0.8870     0.3820 ca         1 6Y2      -0.176500
      3 CAD         -6.5300     0.1680     0.2570 ca         1 6Y2      -0.012500
      4 CAE         -6.4660    -1.1730    -0.1040 ca         1 6Y2      -0.221200
      5 CAF         -5.2470    -1.7940    -0.3290 ca         1 6Y2      -0.012500
      6 CAG         -4.0730    -1.0750    -0.1960 ca         1 6Y2      -0.176500
      7 CAL         -1.8190     0.6730    -0.2150 c6         1 6Y2       0.380300
      8 CAO         -0.9220     1.9030    -0.2860 c6         1 6Y2       0.035700
      9 CAW          1.0120     0.3500     0.1500 c6         1 6Y2       0.153300
     10 CBA         -0.0290    -0.7770     0.1980 c6         1 6Y2       0.154300
     11 CBK          2.4110    -4.4100    -1.1010 c3         1 6Y2      -0.185100
     12 CBG          3.0920    -3.0920    -1.3770 c          1 6Y2       0.611100
     13 OBH          3.0600    -2.5610    -2.4760 o          1 6Y2      -0.581100
     14 N2           3.7080    -2.5480    -0.3070 ns         1 6Y2      -0.504900
     15 C2           4.2880    -1.2320    -0.2770 c6         1 6Y2       0.088700
     16 C3           5.5990    -1.2430     0.5050 c6         1 6Y2       0.172300
     17 O3           6.4890    -2.1010    -0.1520 oh         1 6Y2      -0.622000
     18 C4           6.1390     0.1780     0.6630 c6         1 6Y2       0.107300
     19 O4           6.5230     0.6530    -0.6030 oh         1 6Y2      -0.683000
     20 C5           5.0470     1.0400     1.3000 c6         1 6Y2       0.147300
     21 C6           5.4850     2.4740     1.4980 c3         1 6Y2       0.171600
     22 O6           4.5170     3.1490     2.2620 oh         1 6Y2      -0.703000
     23 O5           3.8910     1.0300     0.4900 os         1 6Y2      -0.434000
     24 C1           3.3170    -0.2370     0.3750 c6         1 6Y2       0.388300
     25 O1           2.2010    -0.1440    -0.4310 os         1 6Y2      -0.419000
     26 OBB         -1.2650    -0.2600     0.6560 os         1 6Y2      -0.460000
     27 CBE          0.3440    -1.9120     1.1250 c3         1 6Y2       0.168600
     28 OBF         -0.5910    -2.9490     0.9450 oh         1 6Y2      -0.713000
     29 CAS          0.4850     1.4820    -0.7290 c6         1 6Y2       0.162300
     30 OAT          1.3750     2.5560    -0.6690 oh         1 6Y2      -0.677000
     31 NAP         -1.4540     2.8930    -1.1840 ns         1 6Y2      -0.514900
     32 CBI         -2.0730     4.0260    -0.7780 c          1 6Y2       0.608100
     33 OBJ         -2.1430     4.3640     0.3920 o          1 6Y2      -0.579100
     34 CBL         -2.6790     4.8490    -1.8860 c3         1 6Y2      -0.182100
     35 OAA         -3.0520     1.0690     0.2990 os         1 6Y2      -0.315100
     36 NAH         -7.6890    -1.9330    -0.2420 no         1 6Y2       0.701200
     37 OAJ         -7.6060    -3.0970    -0.5640 o          1 6Y2      -0.406500
     38 OAI         -8.7390    -1.3690    -0.0310 o          1 6Y2      -0.406500
     39 H1          -5.3970     1.9340     0.6530 ha         1 6Y2       0.146500
     40 H2          -7.4760     0.6580     0.4350 ha         1 6Y2       0.151000
     41 H3          -5.1920    -2.8390    -0.5960 ha         1 6Y2       0.151000
     42 H4          -3.1350    -1.5910    -0.3390 ha         1 6Y2       0.146500
     43 H5          -1.9510     0.2360    -1.2210 h2         1 6Y2       0.035700
     44 H6          -0.8650     2.3440     0.7130 h1         1 6Y2       0.124700
     45 H7           1.1900     0.7320     1.1650 h1         1 6Y2       0.080700
     46 H8          -0.1430    -1.1780    -0.8230 h1         1 6Y2       0.066700
     47 H9           2.8250    -4.9340    -0.2420 hc         1 6Y2       0.059700
     48 H10          1.3530    -4.2280    -0.8990 hc         1 6Y2       0.059700
     49 H11          2.4740    -5.0560    -1.9740 hc         1 6Y2       0.059700
     50 H12          3.7130    -3.0770     0.5520 hn         1 6Y2       0.300500
     51 H13          4.4740    -0.9110    -1.3050 h1         1 6Y2       0.138700
     52 H14          5.3840    -1.6070     1.5230 h1         1 6Y2       0.019700
     53 H15          7.2600    -2.2280     0.4100 ho         1 6Y2       0.442000
     54 H16          6.9930     0.1440     1.3540 h1         1 6Y2       0.032700
     55 H17          7.1790     1.3470    -0.4930 ho         1 6Y2       0.503000
     56 H18          4.8220     0.6120     2.2920 h1         1 6Y2       0.044700
     57 H19          6.4610     2.4580     2.0020 h1         1 6Y2       0.027200
     58 H20          5.6330     2.9500     0.5200 h1         1 6Y2       0.027200
     59 H21          4.7950     4.0650     2.3500 ho         1 6Y2       0.508000
     60 H22          3.0520    -0.6120     1.3830 h2         1 6Y2       0.004700
     61 H23          1.3570    -2.2470     0.8870 h1         1 6Y2       0.033200
     62 H24          0.3570    -1.5420     2.1590 h1         1 6Y2       0.033200
     63 H25         -0.3450    -3.6770     1.5220 ho         1 6Y2       0.507000
     64 H26          0.4120     1.0840    -1.7560 h1         1 6Y2       0.039700
     65 H27          1.0770     3.2280    -1.2920 ho         1 6Y2       0.510000
     66 H28         -1.4880     2.6610    -2.1650 hn         1 6Y2       0.308500
     67 H29         -3.7660     4.7820    -1.8240 hc         1 6Y2       0.062700
     68 H30         -2.4090     5.8960    -1.7540 hc         1 6Y2       0.062700
     69 H31         -2.3770     4.5320    -2.8820 hc         1 6Y2       0.062700
@<TRIPOS>BOND
     1     1     2 ar  
     2     1     6 ar  
     3     1    35 1   
     4     2     3 ar  
     5     2    39 1   
     6     3     4 ar  
     7     3    40 1   
     8     4     5 ar  
     9     4    36 1   
    10     5     6 ar  
    11     5    41 1   
    12     6    42 1   
    13     7     8 1   
    14     7    26 1   
    15     7    35 1   
    16     7    43 1   
    17     8    29 1   
    18     8    31 1   
    19     8    44 1   
    20     9    10 1   
    21     9    25 1   
    22     9    29 1   
    23     9    45 1   
    24    10    26 1   
    25    10    27 1   
    26    10    46 1   
    27    11    12 1   
    28    11    47 1   
    29    11    48 1   
    30    11    49 1   
    31    12    13 2   
    32    12    14 1   
    33    14    15 1   
    34    14    50 1   
    35    15    16 1   
    36    15    24 1   
    37    15    51 1   
    38    16    17 1   
    39    16    18 1   
    40    16    52 1   
    41    17    53 1   
    42    18    19 1   
    43    18    20 1   
    44    18    54 1   
    45    19    55 1   
    46    20    21 1   
    47    20    23 1   
    48    20    56 1   
    49    21    22 1   
    50    21    57 1   
    51    21    58 1   
    52    22    59 1   
    53    23    24 1   
    54    24    25 1   
    55    24    60 1   
    56    27    28 1   
    57    27    61 1   
    58    27    62 1   
    59    28    63 1   
    60    29    30 1   
    61    29    64 1   
    62    30    65 1   
    63    31    32 1   
    64    31    66 1   
    65    32    33 2   
    66    32    34 1   
    67    34    67 1   
    68    34    68 1   
    69    34    69 1   
    70    36    37 1   
    71    36    38 1   
@<TRIPOS>SUBSTRUCTURE
     1 6Y2         1 TEMP              0 ****  ****    0 ROOT
