@<TRIPOS>MOLECULE
6Y4
   55    58     1     0     0
SMALL
abcg2


@<TRIPOS>ATOM
      1 N4          -2.3000     1.0410    -0.1650 na         1 6Y4       0.212000
      2 C8          -1.3170     1.9450    -0.4600 cc         1 6Y4      -0.117000
      3 N3           1.7010    -0.0770    -0.4700 nh         1 6Y4      -0.781300
      4 C5           4.3520    -1.7570     1.0700 ca         1 6Y4       0.174900
      5 C4           2.9200    -0.3360     0.0460 ca         1 6Y4       0.398900
      6 C3           5.0260     0.3850     0.4660 ca         1 6Y4       0.069300
      7 C6           1.2960     1.3010    -0.7920 c5         1 6Y4       0.326100
      8 C7          -0.1690     1.2160    -0.5600 cd         1 6Y4      -0.231300
      9 C2           5.3930    -0.8280     1.0360 ca         1 6Y4      -0.216300
     10 C1           6.7440    -1.1590     1.6130 c3         1 6Y4       0.227900
     11 N2           3.1440    -1.5330     0.5940 nb         1 6Y4      -0.226000
     12 N1           3.8310     0.6370    -0.0250 nb         1 6Y4      -0.224000
     13 C9          -0.5560    -0.1020    -0.3170 cd         1 6Y4       0.235300
     14 C14         -3.6630     1.2920     0.0510 ca         1 6Y4       0.010800
     15 O3          -8.3320    -0.4410     0.0320 o          1 6Y4      -0.518000
     16 C15         -4.5490     0.2230     0.1290 ca         1 6Y4      -0.015000
     17 C11          0.4920    -1.8930    -1.7320 c3         1 6Y4      -0.061700
     18 C10          0.5940    -1.0490    -0.4440 c5         1 6Y4       0.231200
     19 C16         -5.8910     0.4860     0.3470 ca         1 6Y4      -0.249500
     20 C17         -7.0820    -1.2140     2.2160 c3         1 6Y4      -0.336100
     21 C21          6.0070     1.5320     0.3410 c3         1 6Y4       0.258700
     22 C20         -4.1360     2.5950     0.1870 ca         1 6Y4      -0.088000
     23 C19         -5.4860     2.8270     0.3930 ca         1 6Y4      -0.108000
     24 C18         -6.3850     1.7750     0.4760 ca         1 6Y4      -0.028000
     25 F3           6.6290     1.7700     1.5030 f          1 6Y4      -0.104667
     26 F1           6.9540     1.2520    -0.5650 f          1 6Y4      -0.104667
     27 F2           5.4200     2.6610    -0.0320 f          1 6Y4      -0.104667
     28 O1           6.9060    -2.5560     1.5990 oh         1 6Y4      -0.662000
     29 N5          -1.8370    -0.2180    -0.0790 nc         1 6Y4      -0.478800
     30 S           -7.0130    -0.8890     0.4700 sy         1 6Y4       1.057500
     31 O2          -6.4040    -2.0400    -0.1910 o          1 6Y4      -0.518000
     32 H1          -1.5140     2.9970    -0.5740 h4         1 6Y4       0.164000
     33 H2           4.5120    -2.7340     1.5090 h4         1 6Y4       0.044100
     34 H3           1.7990     2.0100    -0.1330 h1         1 6Y4       0.073200
     35 H4           1.5540     1.5700    -1.8200 h1         1 6Y4       0.073200
     36 H5           7.5400    -0.6710     1.0400 h1         1 6Y4       0.037200
     37 H6           6.8060    -0.7650     2.6350 h1         1 6Y4       0.037200
     38 H7           1.6520    -3.2070    -2.9810 hc         1 6Y4       0.039700
     39 H8           2.6280    -1.9860    -2.1830 hc         1 6Y4       0.039700
     40 H9           2.0220    -3.3640    -1.2640 hc         1 6Y4       0.039700
     41 H10         -4.1890    -0.7890     0.0170 ha         1 6Y4       0.169000
     42 H11         -0.5320    -3.5580    -0.7910 hc         1 6Y4       0.039700
     43 H12         -1.6310    -2.3610    -1.4780 hc         1 6Y4       0.039700
     44 H13         -0.7570    -3.4630    -2.5350 hc         1 6Y4       0.039700
     45 H14          0.2950    -1.1990    -2.5570 hc         1 6Y4       0.052700
     46 H15          0.7030    -1.7110     0.4190 h1         1 6Y4       0.100700
     47 H16         -7.7710    -2.0460     2.3640 h1         1 6Y4       0.104700
     48 H17         -6.0910    -1.4810     2.5750 h1         1 6Y4       0.104700
     49 H18         -7.4490    -0.3310     2.7350 h1         1 6Y4       0.104700
     50 H19         -3.4630     3.4390     0.1420 ha         1 6Y4       0.123000
     51 H20         -5.8380     3.8450     0.4950 ha         1 6Y4       0.126000
     52 H21         -7.4370     1.9620     0.6380 ha         1 6Y4       0.142000
     53 H22          7.6550    -2.7730     2.1600 ho         1 6Y4       0.452000
     54 C13          1.7760    -2.6510    -2.0510 c3         1 6Y4      -0.087600
     55 C12         -0.6770    -2.8670    -1.6250 c3         1 6Y4      -0.087600
@<TRIPOS>BOND
     1     1     2 1   
     2     1    14 1   
     3     1    29 1   
     4     2     8 2   
     5     2    32 1   
     6     3     5 1   
     7     3     7 1   
     8     3    18 1   
     9     4     9 ar  
    10     4    11 ar  
    11     4    33 1   
    12     5    11 ar  
    13     5    12 ar  
    14     6     9 ar  
    15     6    12 ar  
    16     6    21 1   
    17     7     8 1   
    18     7    34 1   
    19     7    35 1   
    20     8    13 1   
    21     9    10 1   
    22    10    28 1   
    23    10    36 1   
    24    10    37 1   
    25    13    18 1   
    26    13    29 2   
    27    14    16 ar  
    28    14    22 ar  
    29    15    30 2   
    30    16    19 ar  
    31    16    41 1   
    32    17    18 1   
    33    17    45 1   
    34    17    54 1   
    35    17    55 1   
    36    18    46 1   
    37    19    24 ar  
    38    19    30 1   
    39    20    30 1   
    40    20    47 1   
    41    20    48 1   
    42    20    49 1   
    43    21    25 1   
    44    21    26 1   
    45    21    27 1   
    46    22    23 ar  
    47    22    50 1   
    48    23    24 ar  
    49    23    51 1   
    50    24    52 1   
    51    28    53 1   
    52    30    31 2   
    53    38    54 1   
    54    39    54 1   
    55    40    54 1   
    56    42    55 1   
    57    43    55 1   
    58    44    55 1   
@<TRIPOS>SUBSTRUCTURE
     1 6Y4         1 TEMP              0 ****  ****    0 ROOT
