@<TRIPOS>MOLECULE
6Y4
   55    58     1     0     0
SMALL
No Charge or Current Charge


@<TRIPOS>ATOM
      1 N4          -2.3400     0.9170     0.0180 na         1 6Y4       0.212000
      2 C8          -1.3560     1.8450    -0.3600 cc         1 6Y4      -0.117000
      3 N3           1.7000    -0.1490    -0.3630 nh         1 6Y4      -0.781300
      4 C5           4.5470    -1.5480     1.2940 ca         1 6Y4       0.174900
      5 C4           3.0260    -0.3280     0.0910 ca         1 6Y4       0.398900
      6 C3           5.2040     0.4600     0.1270 ca         1 6Y4       0.069300
      7 C6           1.1440     1.2310    -0.7010 c5         1 6Y4       0.326100
      8 C7          -0.2980     0.9980    -0.4560 cd         1 6Y4      -0.231300
      9 C2           5.5650    -0.6390     0.9520 ca         1 6Y4      -0.216300
     10 C1           6.9740    -0.8790     1.4750 c3         1 6Y4       0.227900
     11 N2           3.2800    -1.3960     0.8700 nb         1 6Y4      -0.226000
     12 N1           3.9240     0.6020    -0.2920 nb         1 6Y4      -0.224000
     13 C9          -0.6470    -0.2680    -0.1400 cd         1 6Y4       0.235300
     14 C14         -3.6610     1.2710     0.3140 ca         1 6Y4       0.010800
     15 O3          -8.6520     0.5000    -0.3890 o          1 6Y4      -0.518000
     16 C15         -4.7270     0.4380    -0.0890 ca         1 6Y4      -0.015000
     17 C11          0.4890    -2.2540    -1.2820 c3         1 6Y4      -0.061700
     18 C10          0.5610    -1.1700    -0.1500 c5         1 6Y4       0.231200
     19 C16         -6.0630     0.7910     0.2030 ca         1 6Y4      -0.249500
     20 C17         -7.6030    -1.3940     1.0880 c3         1 6Y4      -0.336100
     21 C21          6.2000     1.5460    -0.3270 c3         1 6Y4       0.258700
     22 C20         -3.9450     2.4620     1.0160 ca         1 6Y4      -0.088000
     23 C19         -5.2740     2.8130     1.3110 ca         1 6Y4      -0.108000
     24 C18         -6.3320     1.9830     0.9070 ca         1 6Y4      -0.028000
     25 F3           6.6590     2.2720     0.7180 f          1 6Y4      -0.104667
     26 F1           7.2800     1.0180    -0.9490 f          1 6Y4      -0.104667
     27 F2           5.6570     2.4320    -1.1980 f          1 6Y4      -0.104667
     28 O1           7.6540    -1.7920     0.6100 oh         1 6Y4      -0.662000
     29 N5          -1.9150    -0.4020     0.1980 nc         1 6Y4      -0.478800
     30 S           -7.4150    -0.2890    -0.3090 sy         1 6Y4       1.057500
     31 O2          -6.9630    -1.1140    -1.4370 o          1 6Y4      -0.518000
     32 H1          -1.4980     2.9110    -0.4880 h4         1 6Y4       0.164000
     33 H2           4.7490    -2.4150     1.9210 h4         1 6Y4       0.044100
     34 H3           1.5180     2.0200    -0.0320 h1         1 6Y4       0.073200
     35 H4           1.3210     1.5170    -1.7470 h1         1 6Y4       0.073200
     36 H5           7.5270     0.0650     1.5510 h1         1 6Y4       0.037200
     37 H6           6.9120    -1.2950     2.4900 h1         1 6Y4       0.037200
     38 H7           1.6920    -3.7850    -2.2900 hc         1 6Y4       0.039700
     39 H8           2.6250    -2.3770    -1.7810 hc         1 6Y4       0.039700
     40 H9           2.0930    -3.5740    -0.5740 hc         1 6Y4       0.039700
     41 H10         -4.5100    -0.4820    -0.6310 ha         1 6Y4       0.169000
     42 H11         -0.5960    -3.7670    -0.1210 hc         1 6Y4       0.039700
     43 H12         -1.6500    -2.7430    -1.1210 hc         1 6Y4       0.039700
     44 H13         -0.6840    -4.0090    -1.8780 hc         1 6Y4       0.039700
     45 H14          0.2970    -1.7280    -2.2250 hc         1 6Y4       0.052700
     46 H15          0.6260    -1.6640     0.8300 h1         1 6Y4       0.100700
     47 H16         -8.4140    -2.0950     0.8630 h1         1 6Y4       0.104700
     48 H17         -6.6580    -1.9270     1.2310 h1         1 6Y4       0.104700
     49 H18         -7.8450    -0.7920     1.9700 h1         1 6Y4       0.104700
     50 H19         -3.1380     3.1120     1.3460 ha         1 6Y4       0.123000
     51 H20         -5.4840     3.7310     1.8560 ha         1 6Y4       0.126000
     52 H21         -7.3560     2.2690     1.1460 ha         1 6Y4       0.142000
     53 H22          8.5530    -1.9200     0.9860 ho         1 6Y4       0.452000
     54 C13          1.8060    -3.0440    -1.4900 c3         1 6Y4      -0.087600
     55 C12         -0.6810    -3.2520    -1.0850 c3         1 6Y4      -0.087600
@<TRIPOS>BOND
     1     1     2 1   
     2     1    14 1   
     3     1    29 1   
     4     2     8 2   
     5     2    32 1   
     6     3     5 1   
     7     3     7 1   
     8     3    18 1   
     9     4     9 ar  
    10     4    11 ar  
    11     4    33 1   
    12     5    11 ar  
    13     5    12 ar  
    14     6     9 ar  
    15     6    12 ar  
    16     6    21 1   
    17     7     8 1   
    18     7    34 1   
    19     7    35 1   
    20     8    13 1   
    21     9    10 1   
    22    10    28 1   
    23    10    36 1   
    24    10    37 1   
    25    13    18 1   
    26    13    29 2   
    27    14    16 ar  
    28    14    22 ar  
    29    15    30 2   
    30    16    19 ar  
    31    16    41 1   
    32    17    18 1   
    33    17    45 1   
    34    17    54 1   
    35    17    55 1   
    36    18    46 1   
    37    19    24 ar  
    38    19    30 1   
    39    20    30 1   
    40    20    47 1   
    41    20    48 1   
    42    20    49 1   
    43    21    25 1   
    44    21    26 1   
    45    21    27 1   
    46    22    23 ar  
    47    22    50 1   
    48    23    24 ar  
    49    23    51 1   
    50    24    52 1   
    51    28    53 1   
    52    30    31 2   
    53    38    54 1   
    54    39    54 1   
    55    40    54 1   
    56    42    55 1   
    57    43    55 1   
    58    44    55 1   
@<TRIPOS>SUBSTRUCTURE
     1 6Y4         1 TEMP              0 ****  ****    0 ROOT
