@<TRIPOS>MOLECULE
6Y5
   15    14     1     0     0
SMALL
abcg2


@<TRIPOS>ATOM
      1 O10         -0.8010    -1.6510    -0.0100 o          1 6Y5      -0.563100
      2 C5          -0.8790    -0.4450     0.0200 c          1 6Y5       0.427100
      3 C6          -2.2670     0.2620     0.0430 c          1 6Y5       0.648000
      4 O8          -2.2350     1.5010     0.1310 o          1 6Y5      -0.697500
      5 O7          -3.2500    -0.4870    -0.0290 o          1 6Y5      -0.697500
      6 C4           0.3420     0.4350     0.0370 c3         1 6Y5      -0.194400
      7 C3           1.6570    -0.3250    -0.0240 c3         1 6Y5      -0.102400
      8 C2           2.8200     0.6380    -0.0130 c3         1 6Y5       0.177600
      9 F1           4.0270    -0.0600    -0.0920 f          1 6Y5      -0.295000
     10 H2           0.2600     1.1400    -0.7970 hc         1 6Y5       0.062200
     11 H3           0.2930     1.0630     0.9330 hc         1 6Y5       0.062200
     12 H4           1.7400    -1.0060     0.8270 hc         1 6Y5       0.053700
     13 H5           1.6990    -0.9330    -0.9310 hc         1 6Y5       0.053700
     14 H6           2.7730     1.3210    -0.8630 h1         1 6Y5       0.032700
     15 H7           2.8350     1.2290     0.9060 h1         1 6Y5       0.032700
@<TRIPOS>BOND
     1     1     2 2   
     2     2     3 1   
     3     2     6 1   
     4     3     4 1   
     5     3     5 1   
     6     6     7 1   
     7     6    10 1   
     8     6    11 1   
     9     7     8 1   
    10     7    12 1   
    11     7    13 1   
    12     8     9 1   
    13     8    14 1   
    14     8    15 1   
@<TRIPOS>SUBSTRUCTURE
     1 6Y5         1 TEMP              0 ****  ****    0 ROOT
