@<TRIPOS>MOLECULE
6Y5
   15    14     1     0     0
SMALL
No Charge or Current Charge


@<TRIPOS>ATOM
      1 O10         -1.0740    -1.1580     1.5160 o          1 6Y5      -0.563100
      2 C5          -0.9250    -0.2810     0.6600 c          1 6Y5       0.427100
      3 C6          -2.0570     0.0440    -0.4560 c          1 6Y5       0.648000
      4 O8          -2.2110     1.2080    -0.8190 o          1 6Y5      -0.697500
      5 O7          -2.7350    -0.8850    -0.8900 o          1 6Y5      -0.697500
      6 C4           0.3800     0.5420     0.6160 c3         1 6Y5      -0.194400
      7 C3           1.4880    -0.2010    -0.1720 c3         1 6Y5      -0.102400
      8 C2           2.8130     0.5840    -0.2440 c3         1 6Y5       0.177600
      9 F1           3.7310    -0.1250    -0.9450 f          1 6Y5      -0.295000
     10 H2           0.1990     1.4940     0.1040 hc         1 6Y5       0.062200
     11 H3           0.7310     0.7210     1.6390 hc         1 6Y5       0.062200
     12 H4           1.6770    -1.1740     0.2990 hc         1 6Y5       0.053700
     13 H5           1.1370    -0.4020    -1.1920 hc         1 6Y5       0.053700
     14 H6           2.6570     1.5490    -0.7450 h1         1 6Y5       0.032700
     15 H7           3.2040     0.7650     0.7650 h1         1 6Y5       0.032700
@<TRIPOS>BOND
     1     1     2 2   
     2     2     3 1   
     3     2     6 1   
     4     3     4 1   
     5     3     5 1   
     6     6     7 1   
     7     6    10 1   
     8     6    11 1   
     9     7     8 1   
    10     7    12 1   
    11     7    13 1   
    12     8     9 1   
    13     8    14 1   
    14     8    15 1   
@<TRIPOS>SUBSTRUCTURE
     1 6Y5         1 TEMP              0 ****  ****    0 ROOT
