@<TRIPOS>MOLECULE
6Y6
   54    55     1     0     0
SMALL
abcg2


@<TRIPOS>ATOM
      1 O1A         -2.6920    -3.9400    -0.0030 o          1 6Y6      -0.684500
      2 O1B         -0.9540    -4.5640    -1.2600 o          1 6Y6      -0.684500
      3 C01         -1.6620    -3.7350    -0.6600 c          1 6Y6       0.725200
      4 C02         -1.1990    -2.2810    -0.7430 ce         1 6Y6       0.060900
      5 C03         -0.0830    -1.9050    -1.3680 c2         1 6Y6      -0.426200
      6 C04          0.3820    -0.4850    -1.3850 c6         1 6Y6       0.125500
      7 N04          1.8140    -0.3960    -1.1580 na         1 6Y6       0.147800
      8 C05         -0.3640     0.3320    -0.3220 c6         1 6Y6       0.058700
      9 N05         -0.1510     1.7410    -0.4990 ns         1 6Y6      -0.501900
     10 C06         -1.8470    -0.0330    -0.4000 c6         1 6Y6       0.124300
     11 O06         -2.0250    -1.4130    -0.1220 os         1 6Y6      -0.315100
     12 C07         -2.7000     0.7320     0.6080 c3         1 6Y6       0.156300
     13 O07         -2.2040     0.5870     1.9170 oh         1 6Y6      -0.720000
     14 C08         -4.1880     0.3470     0.5170 c3         1 6Y6       0.133300
     15 O08         -4.6550     0.4240    -0.8100 oh         1 6Y6      -0.623000
     16 C09         -5.0230     1.2030     1.4580 c3         1 6Y6       0.126600
     17 O09         -6.3580     0.7560     1.4090 oh         1 6Y6      -0.704000
     18 C41          2.5430    -1.0040    -0.2030 cc         1 6Y6      -0.138000
     19 N41          2.5520     0.4450    -1.8560 nc         1 6Y6      -0.237800
     20 C42          3.7970    -0.4780    -0.3660 cd         1 6Y6       0.170300
     21 N42          3.7520     0.4010    -1.3880 nd         1 6Y6      -0.384000
     22 C43          5.0480    -0.7690     0.3860 c3         1 6Y6       0.151300
     23 O44          4.7240    -1.5830     1.4780 os         1 6Y6      -0.445000
     24 C45          5.8500    -1.9360     2.2410 c3         1 6Y6       0.151900
     25 C51          0.7480     2.4540     0.2170 c          1 6Y6       0.608100
     26 O52          1.3770     1.9820     1.1490 o          1 6Y6      -0.587100
     27 C52          0.9340     3.8870    -0.2520 c3         1 6Y6      -0.140700
     28 C53          1.2020     4.8190     0.9230 c3         1 6Y6      -0.081600
     29 C54          2.0760     3.9280    -1.2720 c3         1 6Y6      -0.081600
     30 H2           0.5060    -2.6510    -1.8820 ha         1 6Y6       0.224000
     31 H3           0.2210    -0.0340    -2.3690 h1         1 6Y6       0.071700
     32 H4           0.0150     0.0620     0.6650 h1         1 6Y6       0.111700
     33 H5          -0.5790     2.1840    -1.2980 hn         1 6Y6       0.302500
     34 H6          -2.2110     0.1790    -1.4150 h1         1 6Y6       0.052700
     35 H7          -2.6080     1.7980     0.3690 h1         1 6Y6       0.055700
     36 H8          -2.2460    -0.3440     2.1620 ho         1 6Y6       0.526000
     37 H9          -4.3020    -0.7020     0.8100 h1         1 6Y6       0.124700
     38 H10         -4.6680     1.3490    -1.0820 ho         1 6Y6       0.419000
     39 H11         -4.6120     1.1320     2.4700 h1         1 6Y6       0.020200
     40 H12         -4.9370     2.2580     1.1520 h1         1 6Y6       0.020200
     41 H13         -6.8570     1.2410     2.0720 ho         1 6Y6       0.490000
     42 H14          2.1270    -1.7230     0.4800 h4         1 6Y6       0.190000
     43 H15          5.7770    -1.2640    -0.2730 h1         1 6Y6       0.027700
     44 H16          5.5150     0.1720     0.7100 h1         1 6Y6       0.027700
     45 H17          6.5900    -2.4880     1.6490 h1         1 6Y6       0.022367
     46 H18          6.3480    -1.0580     2.6700 h1         1 6Y6       0.022367
     47 H19          5.5150    -2.5750     3.0570 h1         1 6Y6       0.022367
     48 H20          0.0180     4.2140    -0.7530 hc         1 6Y6       0.040700
     49 H21          2.1250     4.5530     1.4370 hc         1 6Y6       0.040867
     50 H22          1.3010     5.8450     0.5670 hc         1 6Y6       0.040867
     51 H23          0.3890     4.7970     1.6500 hc         1 6Y6       0.040867
     52 H24          2.2130     4.9450    -1.6390 hc         1 6Y6       0.040867
     53 H25          3.0140     3.6000    -0.8210 hc         1 6Y6       0.040867
     54 H26          1.8750     3.2830    -2.1260 hc         1 6Y6       0.040867
@<TRIPOS>BOND
     1     1     3 1   
     2     2     3 1   
     3     3     4 1   
     4     4     5 2   
     5     4    11 1   
     6     5     6 1   
     7     5    30 1   
     8     6     7 1   
     9     6     8 1   
    10     6    31 1   
    11     7    18 1   
    12     7    19 1   
    13     8     9 1   
    14     8    10 1   
    15     8    32 1   
    16     9    25 1   
    17     9    33 1   
    18    10    11 1   
    19    10    12 1   
    20    10    34 1   
    21    12    13 1   
    22    12    14 1   
    23    12    35 1   
    24    13    36 1   
    25    14    15 1   
    26    14    16 1   
    27    14    37 1   
    28    15    38 1   
    29    16    17 1   
    30    16    39 1   
    31    16    40 1   
    32    17    41 1   
    33    18    20 2   
    34    18    42 1   
    35    19    21 2   
    36    20    21 1   
    37    20    22 1   
    38    22    23 1   
    39    22    43 1   
    40    22    44 1   
    41    23    24 1   
    42    24    45 1   
    43    24    46 1   
    44    24    47 1   
    45    25    26 2   
    46    25    27 1   
    47    27    28 1   
    48    27    29 1   
    49    27    48 1   
    50    28    49 1   
    51    28    50 1   
    52    28    51 1   
    53    29    52 1   
    54    29    53 1   
    55    29    54 1   
@<TRIPOS>SUBSTRUCTURE
     1 6Y6         1 TEMP              0 ****  ****    0 ROOT
