@<TRIPOS>MOLECULE
6Y6
   54    55     1     0     0
SMALL
No Charge or Current Charge


@<TRIPOS>ATOM
      1 O1A         -2.7280    -4.1750     0.1420 o          1 6Y6      -0.684500
      2 O1B         -0.9470    -4.8070    -0.8790 o          1 6Y6      -0.684500
      3 C01         -1.6660    -3.9260    -0.4190 c          1 6Y6       0.725200
      4 C02         -1.2180    -2.4610    -0.5470 ce         1 6Y6       0.060900
      5 C03         -0.0570    -2.0880    -1.1490 c2         1 6Y6      -0.426200
      6 C04          0.3940    -0.6350    -1.2580 c6         1 6Y6       0.125500
      7 N04          1.8640    -0.4910    -1.1340 na         1 6Y6       0.147800
      8 C05         -0.3520     0.2470    -0.2180 c6         1 6Y6       0.058700
      9 N05         -0.1030     1.6860    -0.4680 ns         1 6Y6      -0.501900
     10 C06         -1.8650    -0.1030    -0.2940 c6         1 6Y6       0.124300
     11 O06         -2.0840    -1.5110    -0.0140 os         1 6Y6      -0.315100
     12 C07         -2.7480     0.7010     0.7240 c3         1 6Y6       0.156300
     13 O07         -2.5160     0.2250     2.0680 oh         1 6Y6      -0.720000
     14 C08         -4.2760     0.6380     0.4010 c3         1 6Y6       0.133300
     15 O08         -4.5350     1.1680    -0.9130 oh         1 6Y6      -0.623000
     16 C09         -5.1470     1.4400     1.4060 c3         1 6Y6       0.126600
     17 O09         -6.5190     1.4530     0.9680 oh         1 6Y6      -0.704000
     18 C41          2.6210    -0.8970    -0.0630 cc         1 6Y6      -0.138000
     19 N41          2.6450     0.0870    -2.0960 nc         1 6Y6      -0.237800
     20 C42          3.8920    -0.5330    -0.4070 cd         1 6Y6       0.170300
     21 N42          3.8720     0.0630    -1.6540 nd         1 6Y6      -0.384000
     22 C43          5.1620    -0.7080     0.3960 c3         1 6Y6       0.151300
     23 O44          5.1480    -1.9910     1.0550 os         1 6Y6      -0.445000
     24 C45          6.3110    -2.2600     1.8540 c3         1 6Y6       0.151900
     25 C51          0.8620     2.4490     0.1510 c          1 6Y6       0.608100
     26 O52          1.5580     2.0100     1.0550 o          1 6Y6      -0.587100
     27 C52          0.9900     3.8920    -0.3780 c3         1 6Y6      -0.140700
     28 C53          0.6610     4.9250     0.7260 c3         1 6Y6      -0.081600
     29 C54          2.3850     4.1310    -1.0020 c3         1 6Y6      -0.081600
     30 H2           0.6140    -2.8370    -1.5750 ha         1 6Y6       0.224000
     31 H3           0.1150    -0.2790    -2.2600 h1         1 6Y6       0.071700
     32 H4           0.0050    -0.0070     0.7910 h1         1 6Y6       0.111700
     33 H5          -0.6280     2.1440    -1.2040 hn         1 6Y6       0.302500
     34 H6          -2.2130     0.1030    -1.3160 h1         1 6Y6       0.052700
     35 H7          -2.4570     1.7580     0.6590 h1         1 6Y6       0.055700
     36 H8          -2.3980    -0.7510     1.9900 ho         1 6Y6       0.526000
     37 H9          -4.5910    -0.4140     0.4510 h1         1 6Y6       0.124700
     38 H10         -5.4780     1.4490    -0.8760 ho         1 6Y6       0.419000
     39 H11         -5.0740     0.9780     2.4000 h1         1 6Y6       0.020200
     40 H12         -4.7630     2.4660     1.4850 h1         1 6Y6       0.020200
     41 H13         -7.0420     1.9120     1.6670 ho         1 6Y6       0.490000
     42 H14          2.2200    -1.3820     0.8160 h4         1 6Y6       0.190000
     43 H15          6.0280    -0.6310    -0.2750 h1         1 6Y6       0.027700
     44 H16          5.2280     0.1030     1.1330 h1         1 6Y6       0.027700
     45 H17          7.2190    -2.2460     1.2390 h1         1 6Y6       0.022367
     46 H18          6.4180    -1.5120     2.6510 h1         1 6Y6       0.022367
     47 H19          6.2300    -3.2490     2.3230 h1         1 6Y6       0.022367
     48 H20          0.2520     4.0280    -1.1780 hc         1 6Y6       0.040700
     49 H21          1.3780     4.8560     1.5530 hc         1 6Y6       0.040867
     50 H22          0.6960     5.9450     0.3260 hc         1 6Y6       0.040867
     51 H23         -0.3440     4.7520     1.1280 hc         1 6Y6       0.040867
     52 H24          2.4510     5.1380    -1.4330 hc         1 6Y6       0.040867
     53 H25          3.1750     4.0280    -0.2480 hc         1 6Y6       0.040867
     54 H26          2.5780     3.4060    -1.8020 hc         1 6Y6       0.040867
@<TRIPOS>BOND
     1     1     3 1   
     2     2     3 1   
     3     3     4 1   
     4     4     5 2   
     5     4    11 1   
     6     5     6 1   
     7     5    30 1   
     8     6     7 1   
     9     6     8 1   
    10     6    31 1   
    11     7    18 1   
    12     7    19 1   
    13     8     9 1   
    14     8    10 1   
    15     8    32 1   
    16     9    25 1   
    17     9    33 1   
    18    10    11 1   
    19    10    12 1   
    20    10    34 1   
    21    12    13 1   
    22    12    14 1   
    23    12    35 1   
    24    13    36 1   
    25    14    15 1   
    26    14    16 1   
    27    14    37 1   
    28    15    38 1   
    29    16    17 1   
    30    16    39 1   
    31    16    40 1   
    32    17    41 1   
    33    18    20 2   
    34    18    42 1   
    35    19    21 2   
    36    20    21 1   
    37    20    22 1   
    38    22    23 1   
    39    22    43 1   
    40    22    44 1   
    41    23    24 1   
    42    24    45 1   
    43    24    46 1   
    44    24    47 1   
    45    25    26 2   
    46    25    27 1   
    47    27    28 1   
    48    27    29 1   
    49    27    48 1   
    50    28    49 1   
    51    28    50 1   
    52    28    51 1   
    53    29    52 1   
    54    29    53 1   
    55    29    54 1   
@<TRIPOS>SUBSTRUCTURE
     1 6Y6         1 TEMP              0 ****  ****    0 ROOT
