@<TRIPOS>MOLECULE
6Y7
   49    53     1     0     0
SMALL
bcc


@<TRIPOS>ATOM
      1 C1          -1.6290    -0.7910    -0.1460 ca         1 6Y7      -0.080200
      2 C2          -2.8280     1.3370     0.1800 cc         1 6Y7      -0.204500
      3 C4          -6.0340     2.9160    -0.1700 c3         1 6Y7       0.063300
      4 C6          -3.0990     1.9030     1.4330 cc         1 6Y7       0.332200
      5 C7          -0.5090     1.0870    -0.6600 cc         1 6Y7       0.067700
      6 C8          -0.3460     2.5390    -0.7940 cx         1 6Y7      -0.111500
      7 C9           0.4090     3.1610    -1.9420 cx         1 6Y7      -0.103900
      8 C10          0.9780     3.2240    -0.5700 cx         1 6Y7      -0.103900
      9 C11          0.3390     0.0300    -0.9130 cd         1 6Y7      -0.068600
     10 C12          2.9560    -0.0660    -0.1010 ca         1 6Y7      -0.068100
     11 C13          2.4700     0.0280     1.1940 ca         1 6Y7      -0.126000
     12 CL          -3.3610    -4.2600     0.6870 cl         1 6Y7      -0.109400
     13 C22         -2.2040    -3.0750     0.1970 ca         1 6Y7      -0.017600
     14 C           -2.5580    -1.7430     0.2490 ca         1 6Y7       0.128900
     15 F           -3.7710    -1.3870     0.6720 f          1 6Y7      -0.132900
     16 C21         -0.9340    -3.4690    -0.2440 ca         1 6Y7      -0.131000
     17 C20         -0.0070    -2.5270    -0.6380 ca         1 6Y7      -0.071000
     18 C19         -0.3560    -1.1770    -0.5920 ca         1 6Y7      -0.036800
     19 S            1.9550     0.0750    -1.5600 ss         1 6Y7      -0.180500
     20 C18          4.3180    -0.2720    -0.2970 ca         1 6Y7       0.172900
     21 F1           4.7050    -0.3410    -1.5800 f          1 6Y7      -0.124900
     22 C16          5.2220    -0.4020     0.7470 ca         1 6Y7      -0.163600
     23 C17          6.7260    -0.6340     0.5630 c          1 6Y7       0.931200
     24 O1           7.1730    -0.6100    -0.5960 o          1 6Y7      -0.811800
     25 O            7.3690    -0.8220     1.6110 o          1 6Y7      -0.811800
     26 C15          4.6950    -0.3110     2.0370 ca         1 6Y7      -0.084000
     27 C14          3.3470    -0.0960     2.2620 ca         1 6Y7      -0.173000
     28 N           -1.7060     0.5810    -0.2000 na         1 6Y7       0.045500
     29 N2          -4.2580     2.5300     1.4150 nd         1 6Y7      -0.526800
     30 N1          -4.7310     2.3800     0.1800 na         1 6Y7       0.111400
     31 C3          -3.9110     1.6680    -0.6040 cd         1 6Y7      -0.111300
     32 C5          -7.1590     2.2080     0.5610 c3         1 6Y7      -0.110100
     33 H1          -6.0340     3.9830     0.0520 h1         1 6Y7       0.058200
     34 H2          -6.1420     2.8060    -1.2470 h1         1 6Y7       0.058200
     35 H3          -2.4910     1.8740     2.3250 h4         1 6Y7       0.052100
     36 H4          -1.2100     3.1010    -0.4630 hc         1 6Y7       0.081700
     37 H5           0.8770     2.4980    -2.6570 hc         1 6Y7       0.082450
     38 H6          -0.0180     4.0580    -2.3700 hc         1 6Y7       0.082450
     39 H7           0.9510     4.1650    -0.0360 hc         1 6Y7       0.082450
     40 H8           1.8370     2.6040    -0.3470 hc         1 6Y7       0.082450
     41 H9           1.4140     0.1960     1.3650 ha         1 6Y7       0.119000
     42 H10         -0.6920    -4.5220    -0.2730 ha         1 6Y7       0.145000
     43 H11          0.9710    -2.8340    -0.9820 ha         1 6Y7       0.165000
     44 H13          5.3730    -0.4110     2.8730 ha         1 6Y7       0.154000
     45 H14          2.9700    -0.0220     3.2740 ha         1 6Y7       0.111000
     46 H15         -4.1350     1.4460    -1.6340 h4         1 6Y7       0.182000
     47 H16         -7.1650     1.1410     0.3360 hc         1 6Y7       0.051367
     48 H17         -7.0710     2.3340     1.6390 hc         1 6Y7       0.051367
     49 H18         -8.1160     2.6260     0.2490 hc         1 6Y7       0.051367
@<TRIPOS>BOND
     1     1    14 ar  
     2     1    18 ar  
     3     1    28 1   
     4     2     4 1   
     5     2    28 1   
     6     2    31 2   
     7     3    30 1   
     8     3    32 1   
     9     3    33 1   
    10     3    34 1   
    11     4    29 2   
    12     4    35 1   
    13     5     6 1   
    14     5     9 2   
    15     5    28 1   
    16     6     7 1   
    17     6     8 1   
    18     6    36 1   
    19     7     8 1   
    20     7    37 1   
    21     7    38 1   
    22     8    39 1   
    23     8    40 1   
    24     9    18 1   
    25     9    19 1   
    26    10    11 ar  
    27    10    19 1   
    28    10    20 ar  
    29    11    27 ar  
    30    11    41 1   
    31    12    13 1   
    32    13    14 ar  
    33    13    16 ar  
    34    14    15 1   
    35    16    17 ar  
    36    16    42 1   
    37    17    18 ar  
    38    17    43 1   
    39    20    21 1   
    40    20    22 ar  
    41    22    23 1   
    42    22    26 ar  
    43    23    24 1   
    44    23    25 1   
    45    26    27 ar  
    46    26    44 1   
    47    27    45 1   
    48    29    30 1   
    49    30    31 1   
    50    31    46 1   
    51    32    47 1   
    52    32    48 1   
    53    32    49 1   
@<TRIPOS>SUBSTRUCTURE
     1 6Y7         1 TEMP              0 ****  ****    0 ROOT
