@<TRIPOS>MOLECULE
6Y7
   49    53     1     0     0
SMALL
No Charge or Current Charge


@<TRIPOS>ATOM
      1 C1          -1.1940    -0.5310    -0.2160 ca         1 6Y7      -0.080200
      2 C2          -2.4550     1.5770     0.1970 cc         1 6Y7      -0.139200
      3 C4          -5.9690     2.1790    -0.2410 c3         1 6Y7       0.092600
      4 C6          -2.6680     2.7770     0.8800 cc         1 6Y7       0.266900
      5 C7          -0.1450     1.5650    -0.5050 cc         1 6Y7       0.067700
      6 C8           0.0840     3.0310    -0.5510 cx         1 6Y7      -0.111500
      7 C9          -0.7940     3.8940    -1.4330 cx         1 6Y7      -0.103900
      8 C10          0.6540     3.6850    -1.7940 cx         1 6Y7      -0.103900
      9 C11          0.6470     0.5040    -0.9410 cd         1 6Y7      -0.068600
     10 C12          3.0120     0.3120     0.0070 ca         1 6Y7      -0.195000
     11 C13          2.8350     1.1290     1.1380 ca         1 6Y7      -0.108000
     12 Cl          -2.6250    -4.2880     0.3530 cl         1 6Y7      -0.201000
     13 C22         -1.6190    -2.9150    -0.1080 ca         1 6Y7       0.074000
     14 C           -2.0310    -1.5920     0.1850 ca         1 6Y7       0.164000
     15 F           -3.1750    -1.3750     0.8750 f          1 6Y7      -0.168000
     16 C21         -0.3850    -3.1550    -0.7590 ca         1 6Y7      -0.113000
     17 C20          0.4610    -2.0800    -1.0990 ca         1 6Y7      -0.053000
     18 C19          0.0200    -0.7860    -0.7950 ca         1 6Y7      -0.036800
     19 S            2.2810     0.7780    -1.5650 ss         1 6Y7      -0.053600
     20 C18          3.7750    -0.8710     0.1130 ca         1 6Y7       0.208000
     21 F1           3.9350    -1.6530    -0.9800 f          1 6Y7      -0.160000
     22 C16          4.3440    -1.2490     1.3470 ca         1 6Y7      -0.163600
     23 C17          5.1530    -2.5080     1.4700 c          1 6Y7       0.720600
     24 O1           6.0500    -2.7100     0.6630 o          1 6Y7      -0.706500
     25 O            4.9310    -3.2380     2.4250 o          1 6Y7      -0.706500
     26 C15          4.1380    -0.4310     2.4780 ca         1 6Y7      -0.066000
     27 C14          3.3920     0.7550     2.3700 ca         1 6Y7      -0.155000
     28 N           -1.2830     0.8540    -0.0390 na         1 6Y7       0.045500
     29 N2          -3.9320     3.1560     0.8290 nd         1 6Y7      -0.526800
     30 N1          -4.5280     2.1460     0.0630 na         1 6Y7       0.132800
     31 C3          -3.6230     1.1590    -0.3530 cd         1 6Y7      -0.144000
     32 C5          -6.7920     1.2270     0.6480 c3         1 6Y7      -0.110100
     33 H1          -6.3350     3.2050    -0.1130 h1         1 6Y7       0.058200
     34 H2          -6.1060     1.9030    -1.2940 h1         1 6Y7       0.058200
     35 H3          -1.9500     3.3830     1.4160 h4         1 6Y7       0.052100
     36 H4           0.3710     3.4490     0.4110 hc         1 6Y7       0.081700
     37 H5          -1.5440     3.4000    -2.0480 hc         1 6Y7       0.082450
     38 H6          -1.0880     4.8700    -1.0560 hc         1 6Y7       0.082450
     39 H7           1.3370     4.5200    -1.6570 hc         1 6Y7       0.082450
     40 H8           0.8590     3.0700    -2.6660 hc         1 6Y7       0.082450
     41 H9           2.2670     2.0520     1.0650 ha         1 6Y7       0.101000
     42 H10         -0.0770    -4.1750    -0.9750 ha         1 6Y7       0.127000
     43 H11          1.4240    -2.2500    -1.5730 ha         1 6Y7       0.147000
     44 H13          4.5670    -0.7110     3.4390 ha         1 6Y7       0.136000
     45 H14          3.2480     1.3860     3.2440 ha         1 6Y7       0.093000
     46 H15         -3.8870     0.3140    -0.9770 h4         1 6Y7       0.164000
     47 H16         -6.4590     0.1900     0.5170 hc         1 6Y7       0.051367
     48 H17         -6.6830     1.4960     1.7050 hc         1 6Y7       0.051367
     49 H18         -7.8550     1.2840     0.3850 hc         1 6Y7       0.051367
@<TRIPOS>BOND
     1     1    14 ar  
     2     1    18 ar  
     3     1    28 1   
     4     2     4 1   
     5     2    28 1   
     6     2    31 2   
     7     3    30 1   
     8     3    32 1   
     9     3    33 1   
    10     3    34 1   
    11     4    29 2   
    12     4    35 1   
    13     5     6 1   
    14     5     9 2   
    15     5    28 1   
    16     6     7 1   
    17     6     8 1   
    18     6    36 1   
    19     7     8 1   
    20     7    37 1   
    21     7    38 1   
    22     8    39 1   
    23     8    40 1   
    24     9    18 1   
    25     9    19 1   
    26    10    11 ar  
    27    10    19 1   
    28    10    20 ar  
    29    11    27 ar  
    30    11    41 1   
    31    12    13 1   
    32    13    14 ar  
    33    13    16 ar  
    34    14    15 1   
    35    16    17 ar  
    36    16    42 1   
    37    17    18 ar  
    38    17    43 1   
    39    20    21 1   
    40    20    22 ar  
    41    22    23 1   
    42    22    26 ar  
    43    23    24 1   
    44    23    25 1   
    45    26    27 ar  
    46    26    44 1   
    47    27    45 1   
    48    29    30 1   
    49    30    31 1   
    50    31    46 1   
    51    32    47 1   
    52    32    48 1   
    53    32    49 1   
@<TRIPOS>SUBSTRUCTURE
     1 6Y7         1 TEMP              0 ****  ****    0 ROOT
