@<TRIPOS>MOLECULE
6Y8
   52    55     1     0     0
SMALL
bcc


@<TRIPOS>ATOM
      1 C10          4.7640    -1.4060     2.7350 ca         1 6Y8      -0.126000
      2 C12          0.4640    -1.2130     2.1470 cc         1 6Y8      -0.083300
      3 C13         -0.7250    -1.0060     1.5140 cd         1 6Y8      -0.302600
      4 C15         -3.7690     0.2950     0.3020 ca         1 6Y8       0.741200
      5 C19         -6.0580     3.5920    -2.0310 c3         1 6Y8       0.140700
      6 C16         -4.8810     0.1650     1.1660 ca         1 6Y8      -0.219700
      7 C17         -5.9590     0.9770     0.9750 ca         1 6Y8       0.465200
      8 N3          -6.0160     1.8780    -0.0100 nb         1 6Y8      -0.800000
      9 C18         -4.9570     1.9110    -0.7920 ca         1 6Y8       0.915300
     10 O2          -4.9290     2.7560    -1.8170 os         1 6Y8      -0.412100
     11 N4          -3.8600     1.1810    -0.6850 nb         1 6Y8      -0.805000
     12 N2          -2.6440    -0.4400     0.4130 nh         1 6Y8      -0.788300
     13 C3          -1.5900    -0.3770    -0.6230 c5         1 6Y8       0.221200
     14 C1          -1.7400    -1.4720    -1.7000 c3         1 6Y8      -0.057700
     15 C2          -3.1130    -1.4730    -2.3620 c3         1 6Y8      -0.088600
     16 C           -0.6470    -1.3180    -2.7520 c3         1 6Y8      -0.088600
     17 C14         -2.1990    -1.0380     1.6900 c5         1 6Y8       0.326100
     18 C4          -0.3840    -0.5950     0.2270 cd         1 6Y8       0.306600
     19 N1           1.4270    -0.9160     1.2230 na         1 6Y8       0.162300
     20 N            0.9090    -0.5360     0.0420 nc         1 6Y8      -0.476800
     21 C5           2.8200    -0.9480     1.3910 ca         1 6Y8       0.011800
     22 C11          3.3870    -1.3910     2.5820 ca         1 6Y8      -0.107000
     23 C9           5.5990    -0.9840     1.7120 ca         1 6Y8      -0.047000
     24 C7           5.0130    -0.5540     0.5310 ca         1 6Y8      -0.248500
     25 C6           3.6410    -0.5250     0.3510 ca         1 6Y8      -0.033000
     26 S            6.0550    -0.0180    -0.8070 sy         1 6Y8       1.087300
     27 O            5.2660     0.8410    -1.6860 o          1 6Y8      -0.587300
     28 O1           7.2940     0.5060    -0.2380 o          1 6Y8      -0.587300
     29 C8           6.4260    -1.5240    -1.6750 c3         1 6Y8      -0.225300
     30 H1           5.1870    -1.7500     3.6680 ha         1 6Y8       0.143000
     31 H2           0.7010    -1.5300     3.1480 h4         1 6Y8       0.181000
     32 H3          -6.9650     3.0130    -2.2050 h1         1 6Y8       0.049367
     33 H4          -6.2270     4.2650    -1.1900 h1         1 6Y8       0.049367
     34 H5          -5.8290     4.1770    -2.9180 h1         1 6Y8       0.049367
     35 H6          -6.8220     0.8900     1.6260 h4         1 6Y8       0.035100
     36 H7          -1.6010     0.6070    -1.0970 h1         1 6Y8       0.112700
     37 H8          -1.6070    -2.4390    -1.2000 hc         1 6Y8       0.048700
     38 H9          -3.3110    -0.5310    -2.8740 hc         1 6Y8       0.039700
     39 H10         -3.1640    -2.2730    -3.1030 hc         1 6Y8       0.039700
     40 H11         -3.9170    -1.6440    -1.6450 hc         1 6Y8       0.039700
     41 H12          0.3540    -1.3430    -2.3210 hc         1 6Y8       0.039700
     42 H13         -0.7110    -2.1250    -3.4830 hc         1 6Y8       0.039700
     43 H14         -0.7550    -0.3750    -3.2930 hc         1 6Y8       0.039700
     44 H15         -2.5810    -2.0520     1.8250 h1         1 6Y8       0.068700
     45 H16         -2.5230    -0.4340     2.5370 h1         1 6Y8       0.068700
     46 H17          2.7730    -1.7290     3.4050 ha         1 6Y8       0.140000
     47 H18          6.6720    -0.9920     1.8420 ha         1 6Y8       0.160000
     48 H19          3.2080    -0.1740    -0.5750 ha         1 6Y8       0.189000
     49 H20          6.9440    -2.2080    -1.0070 h1         1 6Y8       0.104033
     50 H21          5.5030    -1.9710    -2.0350 h1         1 6Y8       0.104033
     51 H22          7.0690    -1.2630    -2.5160 h1         1 6Y8       0.104033
     52 F           -4.9160    -0.7710     2.1310 f          1 6Y8      -0.139900
@<TRIPOS>BOND
     1     1    22 ar  
     2     1    23 ar  
     3     1    30 1   
     4     2     3 2   
     5     2    19 1   
     6     2    31 1   
     7     3    17 1   
     8     3    18 1   
     9     4     6 ar  
    10     4    11 ar  
    11     4    12 1   
    12     5    10 1   
    13     5    32 1   
    14     5    33 1   
    15     5    34 1   
    16     6     7 ar  
    17     6    52 1   
    18     7     8 ar  
    19     7    35 1   
    20     8     9 ar  
    21     9    10 1   
    22     9    11 ar  
    23    12    13 1   
    24    12    17 1   
    25    13    14 1   
    26    13    18 1   
    27    13    36 1   
    28    14    15 1   
    29    14    16 1   
    30    14    37 1   
    31    15    38 1   
    32    15    39 1   
    33    15    40 1   
    34    16    41 1   
    35    16    42 1   
    36    16    43 1   
    37    17    44 1   
    38    17    45 1   
    39    18    20 2   
    40    19    20 1   
    41    19    21 1   
    42    21    22 ar  
    43    21    25 ar  
    44    22    46 1   
    45    23    24 ar  
    46    23    47 1   
    47    24    25 ar  
    48    24    26 1   
    49    25    48 1   
    50    26    27 2   
    51    26    28 2   
    52    26    29 1   
    53    29    49 1   
    54    29    50 1   
    55    29    51 1   
@<TRIPOS>SUBSTRUCTURE
     1 6Y8         1 TEMP              0 ****  ****    0 ROOT
