@<TRIPOS>MOLECULE
6Y8
   52    55     1     0     0
SMALL
No Charge or Current Charge


@<TRIPOS>ATOM
      1 C10          4.7430    -2.1660     2.4510 ca         1 6Y8      -0.108000
      2 C12          0.5510    -0.9770     2.1550 cc         1 6Y8      -0.116000
      3 C13         -0.5900    -0.8520     1.4290 cd         1 6Y8      -0.237300
      4 C15         -3.8010     0.4310     0.3340 ca         1 6Y8       0.412900
      5 C19         -6.1000     3.6650    -2.3150 c3         1 6Y8       0.163900
      6 C16         -4.8680     0.3870     1.2620 ca         1 6Y8      -0.054000
      7 C17         -5.9740     1.2100     1.0160 ca         1 6Y8       0.136900
      8 N3          -6.0250     2.0160    -0.0610 nb         1 6Y8      -0.274000
      9 C18         -4.9640     1.9990    -0.9010 ca         1 6Y8       0.389300
     10 O2          -4.9780     2.8080    -2.0170 os         1 6Y8      -0.435300
     11 N4          -3.8630     1.2410    -0.7410 nb         1 6Y8      -0.279000
     12 N2          -2.6250    -0.3510     0.4630 nh         1 6Y8      -0.788300
     13 C3          -1.6020    -0.5720    -0.6740 c5         1 6Y8       0.221200
     14 C1          -1.9790    -1.7740    -1.6070 c3         1 6Y8      -0.057700
     15 C2          -3.3860    -1.6540    -2.2460 c3         1 6Y8      -0.088600
     16 C           -0.9300    -2.0270    -2.7190 c3         1 6Y8      -0.088600
     17 C14         -2.0030    -0.6460     1.8230 c5         1 6Y8       0.326100
     18 C4          -0.3330    -0.8060     0.1040 cd         1 6Y8       0.241300
     19 N1           1.4750    -1.0020     1.0980 na         1 6Y8       0.213000
     20 N            0.9500    -0.8770    -0.1920 nc         1 6Y8      -0.476800
     21 C5           2.8550    -1.1400     1.2860 ca         1 6Y8       0.011800
     22 C11          3.3570    -2.0260     2.2620 ca         1 6Y8      -0.089000
     23 C9           5.6430    -1.4230     1.6690 ca         1 6Y8      -0.029000
     24 C7           5.1550    -0.5330     0.6900 ca         1 6Y8      -0.248500
     25 C6           3.7620    -0.3960     0.5000 ca         1 6Y8      -0.015000
     26 S            6.3040     0.4180    -0.3280 sy         1 6Y8       1.056500
     27 O            5.6110     1.6060    -0.8420 o          1 6Y8      -0.516500
     28 O1           7.5870     0.5290     0.3780 o          1 6Y8      -0.516500
     29 C8           6.5850    -0.6580    -1.7330 c3         1 6Y8      -0.336100
     30 H1           5.1210    -2.8540     3.2040 ha         1 6Y8       0.125000
     31 H2           0.7870    -1.0140     3.2110 h4         1 6Y8       0.163000
     32 H3          -7.0180     3.0770    -2.4480 h1         1 6Y8       0.049367
     33 H4          -6.2650     4.3900    -1.5080 h1         1 6Y8       0.049367
     34 H5          -5.9180     4.2240    -3.2410 h1         1 6Y8       0.049367
     35 H6          -6.8340     1.2250     1.6840 h4         1 6Y8       0.035100
     36 H7          -1.4580     0.3320    -1.2840 h1         1 6Y8       0.112700
     37 H8          -2.0010    -2.6770    -0.9840 hc         1 6Y8       0.048700
     38 H9          -3.4650    -0.7410    -2.8480 hc         1 6Y8       0.039700
     39 H10         -3.5920    -2.5110    -2.8980 hc         1 6Y8       0.039700
     40 H11         -4.1690    -1.6360    -1.4790 hc         1 6Y8       0.039700
     41 H12          0.0430    -2.2990    -2.2960 hc         1 6Y8       0.039700
     42 H13         -1.2430    -2.8530    -3.3690 hc         1 6Y8       0.039700
     43 H14         -0.7990    -1.1330    -3.3420 hc         1 6Y8       0.039700
     44 H15         -2.4100    -1.5540     2.2890 h1         1 6Y8       0.068700
     45 H16         -2.0840     0.2000     2.5210 h1         1 6Y8       0.068700
     46 H17          2.6760    -2.6160     2.8710 ha         1 6Y8       0.122000
     47 H18          6.7140    -1.5460     1.8260 ha         1 6Y8       0.142000
     48 H19          3.3790     0.2900    -0.2550 ha         1 6Y8       0.171000
     49 H20          7.0130    -1.5960    -1.3650 h1         1 6Y8       0.104033
     50 H21          5.6230    -0.8380    -2.2240 h1         1 6Y8       0.104033
     51 H22          7.2800    -0.1560    -2.4140 h1         1 6Y8       0.104033
     52 F           -4.8620    -0.4270     2.3470 f          1 6Y8      -0.175000
@<TRIPOS>BOND
     1     1    22 ar  
     2     1    23 ar  
     3     1    30 1   
     4     2     3 2   
     5     2    19 1   
     6     2    31 1   
     7     3    17 1   
     8     3    18 1   
     9     4     6 ar  
    10     4    11 ar  
    11     4    12 1   
    12     5    10 1   
    13     5    32 1   
    14     5    33 1   
    15     5    34 1   
    16     6     7 ar  
    17     6    52 1   
    18     7     8 ar  
    19     7    35 1   
    20     8     9 ar  
    21     9    10 1   
    22     9    11 ar  
    23    12    13 1   
    24    12    17 1   
    25    13    14 1   
    26    13    18 1   
    27    13    36 1   
    28    14    15 1   
    29    14    16 1   
    30    14    37 1   
    31    15    38 1   
    32    15    39 1   
    33    15    40 1   
    34    16    41 1   
    35    16    42 1   
    36    16    43 1   
    37    17    44 1   
    38    17    45 1   
    39    18    20 2   
    40    19    20 1   
    41    19    21 1   
    42    21    22 ar  
    43    21    25 ar  
    44    22    46 1   
    45    23    24 ar  
    46    23    47 1   
    47    24    25 ar  
    48    24    26 1   
    49    25    48 1   
    50    26    27 2   
    51    26    28 2   
    52    26    29 1   
    53    29    49 1   
    54    29    50 1   
    55    29    51 1   
@<TRIPOS>SUBSTRUCTURE
     1 6Y8         1 TEMP              0 ****  ****    0 ROOT
