@<TRIPOS>MOLECULE
6Y9
   22    22     1     0     0
SMALL
No Charge or Current Charge


@<TRIPOS>ATOM
      1 CD           3.1770    38.7780    18.2100 c5         1 6Y9       0.171800
      2 CG           2.3690    38.4810    16.9100 c5         1 6Y9      -0.084400
      3 CA           2.6700    40.8990    17.2220 c5         1 6Y9       0.064200
      4 CB           2.4220    39.8200    16.1130 c5         1 6Y9      -0.057400
      5 C            3.1830    42.2690    16.5470 c          1 6Y9       0.730000
      6 O            3.5160    42.2980    15.3660 o          1 6Y9      -0.723000
      7 N            3.7270    40.1370    17.9880 n3         1 6Y9      -0.700600
      8 C38          1.3730    41.2030    18.0480 c3         1 6Y9      -0.086100
      9 HD2          2.5190    38.7540    19.0900 h1         1 6Y9       0.004200
     10 HD3          3.9770    38.0430    18.3720 h1         1 6Y9       0.004200
     11 HG2          1.3390    38.1940    17.1490 hc         1 6Y9       0.018200
     12 HG3          2.8060    37.6550    16.3370 hc         1 6Y9       0.018200
     13 H5           5.0960    40.1620    19.6130 h1         1 6Y9       0.013033
     14 H6           4.7480    41.7590    18.9180 h1         1 6Y9       0.013033
     15 H7           3.5390    40.9520    19.9500 h1         1 6Y9       0.013033
     16 HB2          3.2460    39.7780    15.3910 hc         1 6Y9       0.044700
     17 HB3          1.5050    40.0030    15.5410 hc         1 6Y9       0.044700
     18 H57          1.5780    41.8780    18.8870 hc         1 6Y9       0.017033
     19 H58          0.6210    41.6890    17.4150 hc         1 6Y9       0.017033
     20 H59          0.9070    40.3020    18.4620 hc         1 6Y9       0.017033
     21 OXT          3.1900    43.3010    17.2110 o          1 6Y9      -0.723000
     22 C37          4.3050    40.7890    19.1810 c3         1 6Y9       0.187100
@<TRIPOS>BOND
     1     1     2 1   
     2     1     7 1   
     3     1     9 1   
     4     1    10 1   
     5     2     4 1   
     6     2    11 1   
     7     2    12 1   
     8     3     4 1   
     9     3     5 1   
    10     3     7 1   
    11     3     8 1   
    12     4    16 1   
    13     4    17 1   
    14     5     6 1   
    15     5    21 1   
    16     7    22 1   
    17     8    18 1   
    18     8    19 1   
    19     8    20 1   
    20    13    22 1   
    21    14    22 1   
    22    15    22 1   
@<TRIPOS>SUBSTRUCTURE
     1 6Y9         1 TEMP              0 ****  ****    0 ROOT
