@<TRIPOS>MOLECULE
6Y9
   22    22     1     0     0
SMALL
bcc


@<TRIPOS>ATOM
      1 CD           3.2190    38.7910    18.1020 c5         1 6Y9       0.171800
      2 CG           2.3100    38.5400    16.8880 c5         1 6Y9      -0.084400
      3 CA           2.6810    40.9160    17.2410 c5         1 6Y9       0.064200
      4 CB           2.2440    39.8970    16.1740 c5         1 6Y9      -0.057400
      5 C            3.2360    42.1850    16.5340 c          1 6Y9       0.940600
      6 O            4.4660    42.2800    16.3690 o          1 6Y9      -0.828300
      7 N            3.7130    40.1440    17.9290 n3         1 6Y9      -0.700600
      8 C38          1.4950    41.2680    18.1480 c3         1 6Y9      -0.086100
      9 HD2          2.6460    38.6730    19.0370 h1         1 6Y9       0.004200
     10 HD3          4.0530    38.0860    18.1630 h1         1 6Y9       0.004200
     11 HG2          1.3210    38.2150    17.2110 hc         1 6Y9       0.018200
     12 HG3          2.7020    37.7600    16.2360 hc         1 6Y9       0.018200
     13 H5           5.1320    40.1150    19.4480 h1         1 6Y9       0.013033
     14 H6           4.6240    41.7210    18.9430 h1         1 6Y9       0.013033
     15 H7           3.5710    40.7380    19.9780 h1         1 6Y9       0.013033
     16 HB2          2.9470    39.9160    15.3360 hc         1 6Y9       0.044700
     17 HB3          1.2560    40.1190    15.7710 hc         1 6Y9       0.044700
     18 H57          1.7720    41.9860    18.9230 hc         1 6Y9       0.017033
     19 H58          0.6820    41.7080    17.5740 hc         1 6Y9       0.017033
     20 H59          1.0980    40.3840    18.6530 hc         1 6Y9       0.017033
     21 OXT          2.3730    42.9960    16.1380 o          1 6Y9      -0.828300
     22 C37          4.2710    40.7070    19.1270 c3         1 6Y9       0.187100
@<TRIPOS>BOND
     1     1     2 1   
     2     1     7 1   
     3     1     9 1   
     4     1    10 1   
     5     2     4 1   
     6     2    11 1   
     7     2    12 1   
     8     3     4 1   
     9     3     5 1   
    10     3     7 1   
    11     3     8 1   
    12     4    16 1   
    13     4    17 1   
    14     5     6 1   
    15     5    21 1   
    16     7    22 1   
    17     8    18 1   
    18     8    19 1   
    19     8    20 1   
    20    13    22 1   
    21    14    22 1   
    22    15    22 1   
@<TRIPOS>SUBSTRUCTURE
     1 6Y9         1 TEMP              0 ****  ****    0 ROOT
