@<TRIPOS>MOLECULE
6YA
   53    56     1     0     0
SMALL
No Charge or Current Charge


@<TRIPOS>ATOM
      1 C10          2.6040    -2.6830    -0.7440 ca         1 6YA      -0.120000
      2 C13          4.4200     1.8100    -1.5230 c3         1 6YA      -0.307400
      3 C17          6.7040     3.4500    -1.9620 c3         1 6YA      -0.337100
      4 C20         -2.6200     1.9260     0.8680 c          1 6YA       0.603000
      5 C24         -2.1910     0.7720    -1.0980 ca         1 6YA      -0.051400
      6 C28         -4.3900     0.6260    -2.0660 ca         1 6YA      -0.156000
      7 C01         -0.1390    -1.1670     1.0270 cc         1 6YA      -0.201200
      8 C02          0.3460    -0.0540     0.3500 cd         1 6YA      -0.097300
      9 N03          1.4520    -0.4580    -0.4410 na         1 6YA      -0.089700
     10 C04          1.6300    -1.8190    -0.2140 ca         1 6YA      -0.040200
     11 C05          0.6850    -2.2780     0.6630 ca         1 6YA      -0.091800
     12 C06          0.6280    -3.6170     1.0720 ca         1 6YA      -0.046000
     13 C07          1.5910    -4.5040     0.5500 ca         1 6YA       0.093000
     14 Cl8          1.5700    -6.1970     1.0270 cl         1 6YA      -0.212000
     15 C09          2.5760    -4.0400    -0.3530 ca         1 6YA      -0.081000
     16 C11          2.3100     0.3510    -1.3270 c3         1 6YA       0.082600
     17 C12          3.5220     0.9550    -0.5910 c3         1 6YA      -0.078400
     18 S14          5.8540     2.5280    -0.6830 s6         1 6YA       1.086000
     19 O15          5.3650     3.4880     0.3130 o          1 6YA      -0.509000
     20 O16          6.7320     1.4310    -0.2610 o          1 6YA      -0.509000
     21 C18         -0.1940     1.3570     0.4080 c3         1 6YA       0.183200
     22 N19         -1.6120     1.4460     0.0200 n          1 6YA      -0.283000
     23 N22         -3.8260     1.5880     0.2350 n          1 6YA      -0.299000
     24 C23         -3.5650     0.8670    -0.9630 ca         1 6YA       0.037600
     25 C25         -1.6330     0.4240    -2.3420 ca         1 6YA       0.350900
     26 N26         -2.4180     0.0840    -3.3990 nb         1 6YA      -0.659000
     27 C27         -3.7690     0.1790    -3.2510 ca         1 6YA       0.338900
     28 C29         -5.1540     1.7030     0.8820 c3         1 6YA       0.050000
     29 C30         -5.6790     0.3910     1.5110 c3         1 6YA       0.282000
     30 F31         -4.7860    -0.1190     2.3900 f          1 6YA      -0.108000
     31 F32         -6.8350     0.6130     2.1740 f          1 6YA      -0.108000
     32 F33         -5.9170    -0.5470     0.5660 f          1 6YA      -0.108000
     33 H1           3.3640    -2.3270    -1.4350 ha         1 6YA       0.118000
     34 H2           4.8180     1.2000    -2.3420 h1         1 6YA       0.093200
     35 H3           3.8550     2.6520    -1.9400 h1         1 6YA       0.093200
     36 H4           7.5870     3.9090    -1.5060 h1         1 6YA       0.105033
     37 H5           6.9870     2.7440    -2.7490 h1         1 6YA       0.105033
     38 H6           6.0130     4.2100    -2.3400 h1         1 6YA       0.105033
     39 H7          -5.4640     0.7810    -2.0250 ha         1 6YA       0.137000
     40 H8          -0.9890    -1.1720     1.7050 ha         1 6YA       0.215000
     41 H9          -0.1310    -3.9600     1.7690 ha         1 6YA       0.134000
     42 H10          3.3150    -4.7330    -0.7470 ha         1 6YA       0.129000
     43 H11          2.6600    -0.2760    -2.1570 h1         1 6YA       0.057700
     44 H12          1.7100     1.1570    -1.7670 h1         1 6YA       0.057700
     45 H13          4.1130     0.1400    -0.1520 hc         1 6YA       0.078700
     46 H14          3.1600     1.5720     0.2430 hc         1 6YA       0.078700
     47 H15         -0.0710     1.7330     1.4310 h1         1 6YA       0.073200
     48 H16          0.3850     2.0170    -0.2490 h1         1 6YA       0.073200
     49 H17         -0.5570     0.4410    -2.5080 h4         1 6YA       0.033100
     50 H18         -4.3680    -0.0550    -4.1310 h4         1 6YA       0.026100
     51 H19         -5.1070     2.4710     1.6650 h1         1 6YA       0.099700
     52 H20         -5.8790     2.0500     0.1360 h1         1 6YA       0.099700
     53 O21         -2.4810     2.4790     1.9490 o          1 6YA      -0.528000
@<TRIPOS>BOND
     1     1    10 ar  
     2     1    15 ar  
     3     1    33 1   
     4     2    17 1   
     5     2    18 1   
     6     2    34 1   
     7     2    35 1   
     8     3    18 1   
     9     3    36 1   
    10     3    37 1   
    11     3    38 1   
    12     4    22 1   
    13     4    23 1   
    14     4    53 2   
    15     5    22 1   
    16     5    24 ar  
    17     5    25 ar  
    18     6    24 ar  
    19     6    27 ar  
    20     6    39 1   
    21     7     8 2   
    22     7    11 1   
    23     7    40 1   
    24     8     9 1   
    25     8    21 1   
    26     9    10 1   
    27     9    16 1   
    28    10    11 ar  
    29    11    12 ar  
    30    12    13 ar  
    31    12    41 1   
    32    13    14 1   
    33    13    15 ar  
    34    15    42 1   
    35    16    17 1   
    36    16    43 1   
    37    16    44 1   
    38    17    45 1   
    39    17    46 1   
    40    18    19 2   
    41    18    20 2   
    42    21    22 1   
    43    21    47 1   
    44    21    48 1   
    45    23    24 1   
    46    23    28 1   
    47    25    26 ar  
    48    25    49 1   
    49    26    27 ar  
    50    27    50 1   
    51    28    29 1   
    52    28    51 1   
    53    28    52 1   
    54    29    30 1   
    55    29    31 1   
    56    29    32 1   
@<TRIPOS>SUBSTRUCTURE
     1 6YA         1 TEMP              0 ****  ****    0 ROOT
