@<TRIPOS>MOLECULE
6YA
   53    56     1     0     0
SMALL
bcc


@<TRIPOS>ATOM
      1 C10          3.0050    -2.7100    -0.6940 ca         1 6YA      -0.138000
      2 C13          4.4520     1.8610    -1.1020 c3         1 6YA      -0.196600
      3 C17          6.5720     3.6660    -0.7270 c3         1 6YA      -0.226300
      4 C20         -2.1570     1.7440     0.3130 c          1 6YA       0.812500
      5 C24         -2.6450     0.6090    -1.5730 ca         1 6YA      -0.116700
      6 C28         -5.0440     0.5450    -1.5210 ca         1 6YA      -0.239300
      7 C01         -0.3120    -1.3850    -0.1670 cc         1 6YA      -0.151200
      8 C02          0.3180    -0.3250    -0.7520 cd         1 6YA      -0.097300
      9 N03          1.6170    -0.6550    -1.0500 na         1 6YA      -0.060400
     10 C04          1.8470    -1.9400    -0.6320 ca         1 6YA      -0.040200
     11 C05          0.6480    -2.4370    -0.0800 ca         1 6YA      -0.091800
     12 C06          0.6050    -3.7440     0.4120 ca         1 6YA      -0.064000
     13 C07          1.7570    -4.4970     0.3380 ca         1 6YA       0.001400
     14 CL8          1.7430    -6.1290     0.9430 cl         1 6YA      -0.120400
     15 C09          2.9490    -4.0000    -0.2030 ca         1 6YA      -0.099000
     16 C11          2.6250     0.2320    -1.5830 c3         1 6YA       0.053300
     17 C12          3.4150     0.9360    -0.4820 c3         1 6YA      -0.078400
     18 S14          5.4270     2.6500     0.1760 s6         1 6YA       1.006000
     19 O15          4.5490     3.5150     0.9650 o          1 6YA      -0.579800
     20 O16          6.1760     1.6130     0.8870 o          1 6YA      -0.579800
     21 C18         -0.2240     1.0310    -1.0750 c3         1 6YA       0.183200
     22 N19         -1.6300     1.1200    -0.7920 n          1 6YA      -0.350000
     23 N22         -3.5340     1.6140     0.2020 n          1 6YA      -0.366000
     24 C23         -3.8500     0.9240    -0.9450 ca         1 6YA       0.037600
     25 C25         -2.6500    -0.0930    -2.7600 ca         1 6YA       0.416200
     26 N26         -3.7990    -0.4600    -3.3230 nb         1 6YA      -0.659000
     27 C27         -4.9430    -0.1470    -2.7250 ca         1 6YA       0.404200
     28 C29         -4.4540     2.1670     1.1520 c3         1 6YA       0.050000
     29 C30         -4.8400     1.1470     2.2030 c3         1 6YA       0.645900
     30 F31         -3.7760     0.6880     2.8700 f          1 6YA      -0.229300
     31 F32         -5.6800     1.6800     3.0940 f          1 6YA      -0.229300
     32 F33         -5.4450     0.0830     1.6610 f          1 6YA      -0.229300
     33 H1           3.9290    -2.3260    -1.1050 ha         1 6YA       0.136000
     34 H2           5.1490     1.3170    -1.7420 h1         1 6YA       0.093200
     35 H3           3.9860     2.6540    -1.6910 h1         1 6YA       0.093200
     36 H4           7.1840     4.1910     0.0050 h1         1 6YA       0.105033
     37 H5           7.1990     3.0360    -1.3530 h1         1 6YA       0.105033
     38 H6           6.0230     4.3830    -1.3340 h1         1 6YA       0.105033
     39 H7          -6.0100     0.7600    -1.0870 ha         1 6YA       0.155000
     40 H8          -1.3390    -1.4220     0.1600 ha         1 6YA       0.165000
     41 H9          -0.3040    -4.1500     0.8380 ha         1 6YA       0.152000
     42 H10          3.8300    -4.6250    -0.2340 ha         1 6YA       0.147000
     43 H11          3.2950    -0.3460    -2.2210 h1         1 6YA       0.057700
     44 H12          2.1420     0.9620    -2.2330 h1         1 6YA       0.057700
     45 H13          3.9060     0.1910     0.1470 hc         1 6YA       0.078700
     46 H14          2.7340     1.5060     0.1520 hc         1 6YA       0.078700
     47 H15          0.2850     1.8080    -0.5000 h1         1 6YA       0.073200
     48 H16         -0.0640     1.2770    -2.1280 h1         1 6YA       0.073200
     49 H17         -1.7310    -0.3640    -3.2670 h4         1 6YA       0.033100
     50 H18         -5.8500    -0.4650    -3.2260 h4         1 6YA       0.026100
     51 H19         -3.9980     3.0300     1.6380 h1         1 6YA       0.099700
     52 H20         -5.3510     2.5150     0.6400 h1         1 6YA       0.099700
     53 O21         -1.5550     2.3070     1.2000 o          1 6YA      -0.603500
@<TRIPOS>BOND
     1     1    10 ar  
     2     1    15 ar  
     3     1    33 1   
     4     2    17 1   
     5     2    18 1   
     6     2    34 1   
     7     2    35 1   
     8     3    18 1   
     9     3    36 1   
    10     3    37 1   
    11     3    38 1   
    12     4    22 1   
    13     4    23 1   
    14     4    53 2   
    15     5    22 1   
    16     5    24 ar  
    17     5    25 ar  
    18     6    24 ar  
    19     6    27 ar  
    20     6    39 1   
    21     7     8 2   
    22     7    11 1   
    23     7    40 1   
    24     8     9 1   
    25     8    21 1   
    26     9    10 1   
    27     9    16 1   
    28    10    11 ar  
    29    11    12 ar  
    30    12    13 ar  
    31    12    41 1   
    32    13    14 1   
    33    13    15 ar  
    34    15    42 1   
    35    16    17 1   
    36    16    43 1   
    37    16    44 1   
    38    17    45 1   
    39    17    46 1   
    40    18    19 2   
    41    18    20 2   
    42    21    22 1   
    43    21    47 1   
    44    21    48 1   
    45    23    24 1   
    46    23    28 1   
    47    25    26 ar  
    48    25    49 1   
    49    26    27 ar  
    50    27    50 1   
    51    28    29 1   
    52    28    51 1   
    53    28    52 1   
    54    29    30 1   
    55    29    31 1   
    56    29    32 1   
@<TRIPOS>SUBSTRUCTURE
     1 6YA         1 TEMP              0 ****  ****    0 ROOT
