@<TRIPOS>MOLECULE
6YB
   59    61     1     0     0
SMALL
No Charge or Current Charge


@<TRIPOS>ATOM
      1 N1          -4.8260     1.5480     1.0000 nb         1 6YB      -0.319000
      2 C2          -4.9140     0.8260    -0.1410 ca         1 6YB       0.163900
      3 N3          -4.0050    -0.0620    -0.6090 nb         1 6YB      -0.222000
      4 C4          -2.9010    -0.2310     0.1470 ca         1 6YB       0.121500
      5 C6          -3.7190     1.3530     1.7330 ca         1 6YB       0.445900
      6 N10          4.5620    -2.4480     1.2700 nu         1 6YB      -0.948400
      7 C11          3.5960    -1.3370     1.1140 c3         1 6YB       0.207800
      8 C10          2.9190    -1.3390    -0.2880 c3         1 6YB       0.170800
      9 ND           1.8030    -0.3620    -0.4860 n3         1 6YB      -0.732600
     10 C9           0.5380    -2.0060    -2.0900 c5         1 6YB       0.168300
     11 O4          -0.2270    -2.5450    -0.9830 os         1 6YB      -0.424000
     12 C1          -1.5800    -2.0450    -1.0690 c5         1 6YB       0.318300
     13 N9          -1.8070    -1.0380    -0.0330 na         1 6YB      -0.291300
     14 C5          -2.7150     0.4520     1.3220 ca         1 6YB      -0.090600
     15 N6          -3.6350     2.0750     2.8820 nv         1 6YB      -1.070900
     16 N7          -1.5150     0.1270     1.9420 nc         1 6YB      -0.522100
     17 C8          -0.9930    -0.7740     1.0860 cd         1 6YB       0.440700
     18 C7          -1.7810    -1.5680    -2.5620 c5         1 6YB       0.076300
     19 O2          -2.9480    -2.1230    -3.2100 oh         1 6YB      -0.697000
     20 C3          -0.4800    -2.0630    -3.2690 c5         1 6YB       0.101300
     21 O3          -0.6940    -3.3860    -3.7720 oh         1 6YB      -0.713000
     22 CG           2.2420     1.0500    -0.2850 c3         1 6YB       0.175800
     23 CB           1.1220     2.1210    -0.3230 c3         1 6YB      -0.103400
     24 CA           1.6070     3.5560     0.0180 c3         1 6YB       0.016500
     25 C            0.5650     4.6380    -0.4950 c          1 6YB       0.727000
     26 O           -0.5000     4.7550     0.1000 o          1 6YB      -0.727500
     27 N            2.0100     3.6490     1.4680 n8         1 6YB      -0.983200
     28 C12          5.2620    -2.5930     2.3710 c2         1 6YB       0.801100
     29 N12          5.1830    -3.6910     2.9320 n2         1 6YB      -0.921100
     30 N11          6.3990    -2.1330     1.9860 nv         1 6YB      -1.016200
     31 OXT          0.8960     5.3680    -1.4210 o          1 6YB      -0.727500
     32 H21         -5.8080     0.9730    -0.7450 h5         1 6YB       0.031100
     33 H103         4.2510    -3.3400     0.9040 hn         1 6YB       0.459000
     34 H112         2.8140    -1.4150     1.8810 h1         1 6YB       0.055700
     35 H111         4.1150    -0.3810     1.2650 h1         1 6YB       0.055700
     36 H102         3.6950    -1.1720    -1.0480 h1         1 6YB       0.025200
     37 H101         2.5410    -2.3570    -0.4400 h1         1 6YB       0.025200
     38 H5'2         0.2220     0.1120    -1.8280 h1         1 6YB       0.040200
     39 H5'1         1.7400    -0.2830    -2.6150 h1         1 6YB       0.040200
     40 H4'1         1.3950    -2.6640    -2.2840 h1         1 6YB       0.076700
     41 H1'1        -2.2750    -2.8630    -0.8390 h2         1 6YB       0.104700
     42 H62         -2.7210     2.1150     3.3260 hn         1 6YB       0.504500
     43 H61         -4.2180     2.9030     2.9700 hn         1 6YB       0.504500
     44 H81         -0.0490    -1.2900     1.2250 h5         1 6YB       0.109800
     45 H2'1        -1.8210    -0.4690    -2.5970 h1         1 6YB       0.069700
     46 H2'2        -3.7360    -1.6300    -2.8750 ho         1 6YB       0.508000
     47 H3'1        -0.1870    -1.3890    -4.0860 h1         1 6YB       0.047700
     48 H3'2        -1.6840    -3.4280    -3.8230 ho         1 6YB       0.516000
     49 HG3          2.7300     1.1370     0.6930 h1         1 6YB       0.021200
     50 HG2          2.9960     1.3110    -1.0410 h1         1 6YB       0.021200
     51 HB3          0.6960     2.1530    -1.3320 hc         1 6YB       0.051200
     52 HB2          0.3100     1.8350     0.3550 hc         1 6YB       0.051200
     53 HA           2.5220     3.7250    -0.5680 h1         1 6YB       0.037700
     54 H            1.1630     3.5890     2.0470 hn         1 6YB       0.373500
     55 H2           2.5490     2.8170     1.7270 hn         1 6YB       0.373500
     56 H121         4.2190    -4.0170     2.8150 hn         1 6YB       0.371400
     57 H113         6.2600    -1.8730     1.0240 hn         1 6YB       0.462500
     58 H4           7.0970    -2.8470     2.1090 hn         1 6YB       0.462500
     59 C13          1.0810    -0.5660    -1.7840 c3         1 6YB       0.172800
@<TRIPOS>BOND
     1     1     2 ar  
     2     1     5 ar  
     3     2     3 ar  
     4     2    32 1   
     5     3     4 ar  
     6     4    13 1   
     7     4    14 ar  
     8     5    14 ar  
     9     5    15 1   
    10     6     7 1   
    11     6    28 1   
    12     6    33 1   
    13     7     8 1   
    14     7    34 1   
    15     7    35 1   
    16     8     9 1   
    17     8    36 1   
    18     8    37 1   
    19     9    22 1   
    20     9    59 1   
    21    10    11 1   
    22    10    20 1   
    23    10    40 1   
    24    10    59 1   
    25    11    12 1   
    26    12    13 1   
    27    12    18 1   
    28    12    41 1   
    29    13    17 1   
    30    14    16 1   
    31    15    42 1   
    32    15    43 1   
    33    16    17 2   
    34    17    44 1   
    35    18    19 1   
    36    18    20 1   
    37    18    45 1   
    38    19    46 1   
    39    20    21 1   
    40    20    47 1   
    41    21    48 1   
    42    22    23 1   
    43    22    49 1   
    44    22    50 1   
    45    23    24 1   
    46    23    51 1   
    47    23    52 1   
    48    24    25 1   
    49    24    27 1   
    50    24    53 1   
    51    25    26 1   
    52    25    31 1   
    53    27    54 1   
    54    27    55 1   
    55    28    29 2   
    56    28    30 1   
    57    29    56 1   
    58    30    57 1   
    59    30    58 1   
    60    38    59 1   
    61    39    59 1   
@<TRIPOS>SUBSTRUCTURE
     1 6YB         1 TEMP              0 ****  ****    0 ROOT
