@<TRIPOS>MOLECULE
6YB
   59    61     1     0     0
SMALL
abcg2


@<TRIPOS>ATOM
      1 N1          -5.5780     0.0230     2.1630 nb         1 6YB      -0.319000
      2 C2          -5.1850    -1.1190     1.6040 ca         1 6YB       0.163900
      3 N3          -4.1690    -1.3260     0.7840 nb         1 6YB      -0.222000
      4 C4          -3.5010    -0.2020     0.5340 ca         1 6YB       0.121500
      5 C6          -4.8940     1.1430     1.9030 ca         1 6YB       0.445900
      6 N10          4.9030    -2.7120     0.8090 nu         1 6YB      -0.948400
      7 C11          3.7900    -1.7830     0.7640 c3         1 6YB       0.207800
      8 C10          3.4260    -1.5020    -0.6880 c3         1 6YB       0.170800
      9 ND           2.3690    -0.5170    -0.7900 n3         1 6YB      -0.732600
     10 C9           0.3850    -1.6790    -1.6700 c5         1 6YB       0.168300
     11 O4          -0.4160    -1.1820    -0.5890 os         1 6YB      -0.424000
     12 C1          -1.7480    -1.0720    -1.0030 c5         1 6YB       0.318300
     13 N9          -2.4060    -0.0280    -0.2660 na         1 6YB      -0.291300
     14 C5          -3.7850     1.0540     1.0420 ca         1 6YB      -0.090600
     15 N6          -5.2800     2.2890     2.4660 nv         1 6YB      -1.070900
     16 N7          -2.8880     1.9810     0.5760 nc         1 6YB      -0.522100
     17 C8          -2.0880     1.3050    -0.1930 cd         1 6YB       0.440700
     18 C7          -1.6700    -0.8500    -2.5080 c5         1 6YB       0.076300
     19 O2          -2.9050    -1.1080    -3.1030 oh         1 6YB      -0.697000
     20 C3          -0.5540    -1.8370    -2.8660 c5         1 6YB       0.101300
     21 O3          -1.0420    -3.1540    -2.8980 oh         1 6YB      -0.713000
     22 CG           2.8360     0.8530    -0.6540 c3         1 6YB       0.175800
     23 CB           1.7300     1.7830    -0.1810 c3         1 6YB      -0.103400
     24 CA           2.1260     3.2640    -0.1610 c3         1 6YB       0.016500
     25 C            0.8670     4.1040     0.1620 c          1 6YB       0.727000
     26 O            0.8460     4.7250     1.2410 o          1 6YB      -0.727500
     27 N            3.2250     3.5980     0.7300 n8         1 6YB      -0.983200
     28 C12          5.4690    -3.1650     1.9740 c2         1 6YB       0.801100
     29 N12          6.1570    -4.2430     2.0950 n2         1 6YB      -0.921100
     30 N11          5.2500    -2.3780     3.0790 nv         1 6YB      -1.016200
     31 OXT         -0.0440     4.0640    -0.6920 o          1 6YB      -0.727500
     32 H21         -5.7800    -1.9900     1.8570 h5         1 6YB       0.031100
     33 H103         4.9020    -3.3970     0.0690 hn         1 6YB       0.459000
     34 H112         2.9040    -2.1620     1.2850 h1         1 6YB       0.055700
     35 H111         4.0730    -0.8460     1.2490 h1         1 6YB       0.055700
     36 H102         4.3290    -1.2040    -1.2450 h1         1 6YB       0.025200
     37 H101         3.0800    -2.4360    -1.1390 h1         1 6YB       0.025200
     38 H5'2         1.1200     0.2360    -2.2840 h1         1 6YB       0.040200
     39 H5'1         2.0990    -1.1120    -2.8090 h1         1 6YB       0.040200
     40 H4'1         0.7900    -2.6580    -1.3850 h1         1 6YB       0.076700
     41 H1'1        -2.3200    -1.9840    -0.7940 h2         1 6YB       0.104700
     42 H62         -4.8030     3.1510     2.2700 hn         1 6YB       0.504500
     43 H61         -6.0990     2.3180     3.0480 hn         1 6YB       0.504500
     44 H81         -1.2490     1.7340    -0.7210 h5         1 6YB       0.109800
     45 H2'1        -1.3220     0.1720    -2.7140 h1         1 6YB       0.069700
     46 H2'2        -2.9210    -0.7020    -3.9760 ho         1 6YB       0.508000
     47 H3'1        -0.0590    -1.5690    -3.8080 h1         1 6YB       0.047700
     48 H3'2        -1.8440    -3.1620    -3.4340 ho         1 6YB       0.516000
     49 HG3          3.6520     0.8590     0.0730 h1         1 6YB       0.021200
     50 HG2          3.2670     1.2300    -1.5970 h1         1 6YB       0.021200
     51 HB3          0.8710     1.6810    -0.8450 hc         1 6YB       0.051200
     52 HB2          1.3950     1.4670     0.8130 hc         1 6YB       0.051200
     53 HA           2.4350     3.5260    -1.1820 h1         1 6YB       0.037700
     54 H            2.9060     3.5270     1.6880 hn         1 6YB       0.373500
     55 H2           3.9820     2.9330     0.6240 hn         1 6YB       0.373500
     56 H121         6.1620    -4.7690     1.2280 hn         1 6YB       0.371400
     57 H113         5.1780    -1.3830     2.9360 hn         1 6YB       0.462500
     58 H4           5.8550    -2.6050     3.8520 hn         1 6YB       0.462500
     59 C13          1.5300    -0.7210    -1.9530 c3         1 6YB       0.172800
@<TRIPOS>BOND
     1     1     2 ar  
     2     1     5 ar  
     3     2     3 ar  
     4     2    32 1   
     5     3     4 ar  
     6     4    13 1   
     7     4    14 ar  
     8     5    14 ar  
     9     5    15 1   
    10     6     7 1   
    11     6    28 1   
    12     6    33 1   
    13     7     8 1   
    14     7    34 1   
    15     7    35 1   
    16     8     9 1   
    17     8    36 1   
    18     8    37 1   
    19     9    22 1   
    20     9    59 1   
    21    10    11 1   
    22    10    20 1   
    23    10    40 1   
    24    10    59 1   
    25    11    12 1   
    26    12    13 1   
    27    12    18 1   
    28    12    41 1   
    29    13    17 1   
    30    14    16 1   
    31    15    42 1   
    32    15    43 1   
    33    16    17 2   
    34    17    44 1   
    35    18    19 1   
    36    18    20 1   
    37    18    45 1   
    38    19    46 1   
    39    20    21 1   
    40    20    47 1   
    41    21    48 1   
    42    22    23 1   
    43    22    49 1   
    44    22    50 1   
    45    23    24 1   
    46    23    51 1   
    47    23    52 1   
    48    24    25 1   
    49    24    27 1   
    50    24    53 1   
    51    25    26 1   
    52    25    31 1   
    53    27    54 1   
    54    27    55 1   
    55    28    29 2   
    56    28    30 1   
    57    29    56 1   
    58    30    57 1   
    59    30    58 1   
    60    38    59 1   
    61    39    59 1   
@<TRIPOS>SUBSTRUCTURE
     1 6YB         1 TEMP              0 ****  ****    0 ROOT
