@<TRIPOS>MOLECULE
6YC
   55    57     1     0     0
SMALL
abcg2


@<TRIPOS>ATOM
      1 CAU         -2.9540     0.0030    -0.9290 ca         1 6YC      -0.058000
      2 CAV         -4.2210     0.4910    -0.5360 ca         1 6YC      -0.043000
      3 CBA         -5.4020     0.1480    -1.2380 ca         1 6YC      -0.094000
      4 CAZ         -6.6140     0.6450    -0.8440 ca         1 6YC      -0.108000
      5 CAY         -6.7040     1.5060     0.2710 ca         1 6YC      -0.101000
      6 CAX         -5.5790     1.8530     0.9690 ca         1 6YC      -0.101000
      7 CAW         -4.3120     1.3560     0.5840 ca         1 6YC      -0.029000
      8 CAT         -3.1290     1.6980     1.2800 ca         1 6YC      -0.100000
      9 CAS         -1.9190     1.1980     0.8900 ca         1 6YC      -0.092000
     10 CAR         -1.8270     0.3350    -0.2270 ca         1 6YC      -0.140600
     11 CAB         -0.4830    -0.1190    -0.7140 c          1 6YC       0.608700
     12 OAA         -0.0610     0.3040    -1.7830 o          1 6YC      -0.592100
     13 NAC          0.2160    -0.9630     0.0690 n          1 6YC      -0.397800
     14 CAD         -0.3760    -1.6630     1.2010 c3         1 6YC       0.107000
     15 CAE         -1.1560    -2.9000     0.8040 c3         1 6YC       0.132600
     16 OAF         -0.3020    -3.8130     0.1690 os         1 6YC      -0.454000
     17 CAG         -0.9780    -4.9440    -0.3190 c3         1 6YC       0.145900
     18 CAH          1.5680    -1.3280    -0.3380 c3         1 6YC       0.111000
     19 CAI          2.6030    -0.2530    -0.0170 c6         1 6YC      -0.120700
     20 CAQ          3.9830    -0.7280    -0.4850 c6         1 6YC       0.170800
     21 CAJ          2.6590     0.0760     1.4740 c6         1 6YC      -0.068400
     22 CAK          3.8030     1.0350     1.7870 c6         1 6YC      -0.112400
     23 CAL          5.1210     0.5010     1.2300 c6         1 6YC       0.162800
     24 NAM          5.0690     0.1920    -0.1930 n3         1 6YC      -0.711600
     25 CAN          5.0580     1.3660    -1.0470 c3         1 6YC       0.249900
     26 CAO          6.3360     2.0740    -1.0060 c1         1 6YC      -0.138100
     27 CAP          7.3840     2.6630    -0.9790 c1         1 6YC      -0.246000
     28 H1          -2.8910    -0.6500    -1.7920 ha         1 6YC       0.124000
     29 H2          -5.3320    -0.5150    -2.0910 ha         1 6YC       0.116000
     30 H3          -7.5110     0.3820    -1.3890 ha         1 6YC       0.115000
     31 H4          -7.6690     1.8920     0.5710 ha         1 6YC       0.114000
     32 H5          -5.6470     2.5150     1.8240 ha         1 6YC       0.115000
     33 H6          -3.1910     2.3680     2.1280 ha         1 6YC       0.116000
     34 H7          -1.0230     1.4710     1.4350 ha         1 6YC       0.118000
     35 H8           0.4260    -1.9300     1.8880 h1         1 6YC       0.061700
     36 H9          -1.0410    -1.0060     1.7580 h1         1 6YC       0.061700
     37 H10         -1.6040    -3.3340     1.7090 h1         1 6YC       0.030200
     38 H11         -1.9890    -2.6180     0.1430 h1         1 6YC       0.030200
     39 H12         -1.7380    -4.6780    -1.0640 h1         1 6YC       0.030033
     40 H13         -0.2440    -5.5950    -0.7930 h1         1 6YC       0.030033
     41 H14         -1.4740    -5.5050     0.4810 h1         1 6YC       0.030033
     42 H15          1.8320    -2.2510     0.1780 h1         1 6YC       0.060700
     43 H16          1.5810    -1.5550    -1.4060 h1         1 6YC       0.060700
     44 H17          2.3400     0.6570    -0.5690 hc         1 6YC       0.068700
     45 H18          4.2150    -1.6800     0.0080 h1         1 6YC       0.053700
     46 H19          3.9720    -0.9290    -1.5600 h1         1 6YC       0.053700
     47 H20          1.7080     0.5000     1.8090 hc         1 6YC       0.037200
     48 H21          2.8000    -0.8540     2.0400 hc         1 6YC       0.037200
     49 H22          3.5860     2.0230     1.3690 hc         1 6YC       0.044200
     50 H23          3.8970     1.1750     2.8670 hc         1 6YC       0.044200
     51 H24          5.9350     1.2060     1.4110 h1         1 6YC       0.055200
     52 H25          5.3860    -0.4220     1.7580 h1         1 6YC       0.055200
     53 H27          4.8810     1.0400    -2.0760 h1         1 6YC       0.051200
     54 H28          4.2580     2.0870    -0.8230 h1         1 6YC       0.051200
     55 H29          8.3180     3.1760    -0.9570 ha         1 6YC       0.252000
@<TRIPOS>BOND
     1     1     2 ar  
     2     1    10 ar  
     3     1    28 1   
     4     2     3 ar  
     5     2     7 ar  
     6     3     4 ar  
     7     3    29 1   
     8     4     5 ar  
     9     4    30 1   
    10     5     6 ar  
    11     5    31 1   
    12     6     7 ar  
    13     6    32 1   
    14     7     8 ar  
    15     8     9 ar  
    16     8    33 1   
    17     9    10 ar  
    18     9    34 1   
    19    10    11 1   
    20    11    12 2   
    21    11    13 1   
    22    13    14 1   
    23    13    18 1   
    24    14    15 1   
    25    14    35 1   
    26    14    36 1   
    27    15    16 1   
    28    15    37 1   
    29    15    38 1   
    30    16    17 1   
    31    17    39 1   
    32    17    40 1   
    33    17    41 1   
    34    18    19 1   
    35    18    42 1   
    36    18    43 1   
    37    19    20 1   
    38    19    21 1   
    39    19    44 1   
    40    20    24 1   
    41    20    45 1   
    42    20    46 1   
    43    21    22 1   
    44    21    47 1   
    45    21    48 1   
    46    22    23 1   
    47    22    49 1   
    48    22    50 1   
    49    23    24 1   
    50    23    51 1   
    51    23    52 1   
    52    24    25 1   
    53    25    26 1   
    54    25    53 1   
    55    25    54 1   
    56    26    27 3   
    57    27    55 1   
@<TRIPOS>SUBSTRUCTURE
     1 6YC         1 TEMP              0 ****  ****    0 ROOT
