@<TRIPOS>MOLECULE
6YC
   55    57     1     0     0
SMALL
No Charge or Current Charge


@<TRIPOS>ATOM
      1 CAU         -3.1260     0.2380    -1.1320 ca         1 6YC      -0.058000
      2 CAV         -4.3010     0.8690    -0.6830 ca         1 6YC      -0.043000
      3 CBA         -5.4630     0.8540    -1.4780 ca         1 6YC      -0.094000
      4 CAZ         -6.6350     1.4850    -1.0250 ca         1 6YC      -0.108000
      5 CAY         -6.6490     2.1340     0.2220 ca         1 6YC      -0.101000
      6 CAX         -5.4910     2.1530     1.0180 ca         1 6YC      -0.101000
      7 CAW         -4.3160     1.5210     0.5690 ca         1 6YC      -0.029000
      8 CAT         -3.1510     1.5440     1.3570 ca         1 6YC      -0.100000
      9 CAS         -1.9800     0.9120     0.9050 ca         1 6YC      -0.092000
     10 CAR         -1.9630     0.2300    -0.3330 ca         1 6YC      -0.140600
     11 CAB         -0.7060    -0.4270    -0.8570 c          1 6YC       0.608700
     12 OAA         -0.3870    -0.2810    -2.0310 o          1 6YC      -0.592100
     13 NAC          0.1380    -1.1180     0.0480 n          1 6YC      -0.397800
     14 CAD         -0.4340    -1.8710     1.2030 c3         1 6YC       0.107000
     15 CAE         -0.9870    -3.2740     0.8480 c3         1 6YC       0.132600
     16 OAF          0.0970    -4.1420     0.4670 os         1 6YC      -0.454000
     17 CAG         -0.3050    -5.4720     0.1000 c3         1 6YC       0.145900
     18 CAH          1.5240    -1.4680    -0.3530 c3         1 6YC       0.111000
     19 CAI          2.5710    -0.3710    -0.0180 c6         1 6YC      -0.120700
     20 CAQ          3.9760    -0.7700    -0.5530 c6         1 6YC       0.170800
     21 CAJ          2.6430    -0.0680     1.5060 c6         1 6YC      -0.068400
     22 CAK          3.7550     0.9620     1.8150 c6         1 6YC      -0.112400
     23 CAL          5.1100     0.5160     1.2050 c6         1 6YC       0.162800
     24 NAM          5.0080     0.2670    -0.2650 n3         1 6YC      -0.711600
     25 CAN          4.8630     1.4920    -1.1000 c3         1 6YC       0.249900
     26 CAO          6.0380     2.3790    -1.0550 c1         1 6YC      -0.138100
     27 CAP          6.9880     3.1290    -1.0040 c1         1 6YC      -0.246000
     28 H1          -3.1170    -0.2600    -2.1000 ha         1 6YC       0.124000
     29 H2          -5.4610     0.3550    -2.4450 ha         1 6YC       0.116000
     30 H3          -7.5320     1.4720    -1.6410 ha         1 6YC       0.115000
     31 H4          -7.5560     2.6220     0.5700 ha         1 6YC       0.114000
     32 H5          -5.5080     2.6580     1.9810 ha         1 6YC       0.115000
     33 H6          -3.1480     2.0580     2.3150 ha         1 6YC       0.116000
     34 H7          -1.0800     0.9660     1.5150 ha         1 6YC       0.118000
     35 H8           0.3450    -1.9890     1.9680 h1         1 6YC       0.061700
     36 H9          -1.2430    -1.3090     1.6760 h1         1 6YC       0.061700
     37 H10         -1.5070    -3.6810     1.7250 h1         1 6YC       0.030200
     38 H11         -1.7170    -3.1790     0.0330 h1         1 6YC       0.030200
     39 H12         -0.9880    -5.4490    -0.7590 h1         1 6YC       0.030033
     40 H13          0.5710    -6.0720    -0.1760 h1         1 6YC       0.030033
     41 H14         -0.8120    -5.9710     0.9360 h1         1 6YC       0.030033
     42 H15          1.8330    -2.3890     0.1570 h1         1 6YC       0.060700
     43 H16          1.5560    -1.6800    -1.4300 h1         1 6YC       0.060700
     44 H17          2.2370     0.5340    -0.5430 hc         1 6YC       0.068700
     45 H18          4.2720    -1.7230    -0.0880 h1         1 6YC       0.053700
     46 H19          3.9150    -0.9580    -1.6350 h1         1 6YC       0.053700
     47 H20          1.6790     0.3150     1.8670 hc         1 6YC       0.037200
     48 H21          2.8400    -0.9960     2.0600 hc         1 6YC       0.037200
     49 H22          3.4720     1.9500     1.4280 hc         1 6YC       0.044200
     50 H23          3.8620     1.0770     2.9020 hc         1 6YC       0.044200
     51 H24          5.8760     1.2720     1.4300 h1         1 6YC       0.055200
     52 H25          5.4310    -0.4060     1.7130 h1         1 6YC       0.055200
     53 H27          4.7140     1.2080    -2.1510 h1         1 6YC       0.051200
     54 H28          3.9810     2.0730    -0.8020 h1         1 6YC       0.051200
     55 H29          7.8360     3.7820    -0.9530 ha         1 6YC       0.252000
@<TRIPOS>BOND
     1     1     2 ar  
     2     1    10 ar  
     3     1    28 1   
     4     2     3 ar  
     5     2     7 ar  
     6     3     4 ar  
     7     3    29 1   
     8     4     5 ar  
     9     4    30 1   
    10     5     6 ar  
    11     5    31 1   
    12     6     7 ar  
    13     6    32 1   
    14     7     8 ar  
    15     8     9 ar  
    16     8    33 1   
    17     9    10 ar  
    18     9    34 1   
    19    10    11 1   
    20    11    12 2   
    21    11    13 1   
    22    13    14 1   
    23    13    18 1   
    24    14    15 1   
    25    14    35 1   
    26    14    36 1   
    27    15    16 1   
    28    15    37 1   
    29    15    38 1   
    30    16    17 1   
    31    17    39 1   
    32    17    40 1   
    33    17    41 1   
    34    18    19 1   
    35    18    42 1   
    36    18    43 1   
    37    19    20 1   
    38    19    21 1   
    39    19    44 1   
    40    20    24 1   
    41    20    45 1   
    42    20    46 1   
    43    21    22 1   
    44    21    47 1   
    45    21    48 1   
    46    22    23 1   
    47    22    49 1   
    48    22    50 1   
    49    23    24 1   
    50    23    51 1   
    51    23    52 1   
    52    24    25 1   
    53    25    26 1   
    54    25    53 1   
    55    25    54 1   
    56    26    27 3   
    57    27    55 1   
@<TRIPOS>SUBSTRUCTURE
     1 6YC         1 TEMP              0 ****  ****    0 ROOT
