@<TRIPOS>MOLECULE
6YD
   39    41     1     0     0
SMALL
abcg2


@<TRIPOS>ATOM
      1 N01         -1.2180     0.7680    -0.0050 ns         1 6YD      -0.353100
      2 C02         -0.8350     2.0570     0.0040 c          1 6YD       0.512600
      3 O03         -1.6030     3.0050     0.0180 o          1 6YD      -0.605100
      4 C04          0.6550     2.2350    -0.0050 ca         1 6YD       0.302500
      5 N05          1.3820     1.1270    -0.0170 nb         1 6YD      -0.691000
      6 C06          2.7080     1.2070    -0.0280 ca         1 6YD       0.472500
      7 C07          3.3540     2.4490    -0.0250 ca         1 6YD      -0.144000
      8 C08          2.5910     3.6010    -0.0120 ca         1 6YD      -0.079000
      9 C09          1.2060     3.5060    -0.0020 ca         1 6YD      -0.119000
     10 C10          3.4410    -0.0490    -0.0410 cc         1 6YD      -0.298500
     11 C11          4.8300    -0.2820    -0.0750 cc         1 6YD       0.264900
     12 N12          5.1010    -1.5710    -0.0730 nd         1 6YD      -0.533800
     13 N13          3.9180    -2.1820    -0.0360 na         1 6YD       0.132800
     14 C14          2.8940    -1.3210    -0.0180 cd         1 6YD      -0.105000
     15 C15         -2.5220     0.3130    -0.0050 cc         1 6YD       0.010600
     16 C16         -3.7130     1.0120     0.0100 cd         1 6YD      -0.205000
     17 N17         -4.6920     0.0810     0.0090 na         1 6YD       0.158800
     18 N18         -4.2350    -1.1480    -0.0110 nd         1 6YD      -0.515800
     19 C19         -2.9120    -1.0420    -0.0180 cc         1 6YD       0.147500
     20 C20         -6.1160     0.3300    -0.0180 c3         1 6YD       0.071900
     21 C21         -2.0260    -2.2200    -0.0310 c          1 6YD       0.550600
     22 N22         -2.6380    -3.4080    -0.0380 nt         1 6YD      -0.589000
     23 O23         -0.8050    -2.0810    -0.0340 o          1 6YD      -0.643100
     24 C24          3.8500    -3.6240    -0.0360 c3         1 6YD       0.070900
     25 H1          -0.4890     0.0640    -0.0170 hn         1 6YD       0.382500
     26 H2           4.4330     2.5100    -0.0330 ha         1 6YD       0.126000
     27 H3           3.0720     4.5700    -0.0100 ha         1 6YD       0.122000
     28 H4           0.5800     4.3860     0.0090 ha         1 6YD       0.145000
     29 H5           5.6340     0.4380    -0.1010 h4         1 6YD       0.035100
     30 H6           1.8670    -1.6480     0.0110 h4         1 6YD       0.186000
     31 H7          -3.9300     2.0640     0.0250 h4         1 6YD       0.185000
     32 H8          -6.5250     0.0940    -0.9990 h1         1 6YD       0.060700
     33 H9          -6.6070    -0.2800     0.7350 h1         1 6YD       0.060700
     34 H10         -6.2950     1.3770     0.2010 h1         1 6YD       0.060700
     35 H11         -3.6410    -3.4820    -0.0340 hn         1 6YD       0.323500
     36 H12         -2.0990    -4.2590    -0.0460 hn         1 6YD       0.323500
     37 H13          4.4390    -4.0240     0.7860 h1         1 6YD       0.058033
     38 H14          2.8150    -3.9300     0.0890 h1         1 6YD       0.058033
     39 H15          4.2270    -4.0240    -0.9760 h1         1 6YD       0.058033
@<TRIPOS>BOND
     1     1     2 1   
     2     1    15 1   
     3     1    25 1   
     4     2     3 2   
     5     2     4 1   
     6     4     5 ar  
     7     4     9 ar  
     8     5     6 ar  
     9     6     7 ar  
    10     6    10 1   
    11     7     8 ar  
    12     7    26 1   
    13     8     9 ar  
    14     8    27 1   
    15     9    28 1   
    16    10    11 1   
    17    10    14 2   
    18    11    12 2   
    19    11    29 1   
    20    12    13 1   
    21    13    14 1   
    22    13    24 1   
    23    14    30 1   
    24    15    16 2   
    25    15    19 1   
    26    16    17 1   
    27    16    31 1   
    28    17    18 1   
    29    17    20 1   
    30    18    19 2   
    31    19    21 1   
    32    20    32 1   
    33    20    33 1   
    34    20    34 1   
    35    21    22 1   
    36    21    23 2   
    37    22    35 1   
    38    22    36 1   
    39    24    37 1   
    40    24    38 1   
    41    24    39 1   
@<TRIPOS>SUBSTRUCTURE
     1 6YD         1 TEMP              0 ****  ****    0 ROOT
