@<TRIPOS>MOLECULE
6YD
   39    41     1     0     0
SMALL
No Charge or Current Charge


@<TRIPOS>ATOM
      1 N01         -1.3380     0.7910    -0.0110 ns         1 6YD      -0.353100
      2 C02         -0.8770     2.0980    -0.0030 c          1 6YD       0.512600
      3 O03         -1.6320     3.0680     0.0070 o          1 6YD      -0.605100
      4 C04          0.6500     2.2230    -0.0080 ca         1 6YD       0.302500
      5 N05          1.3980     1.0800    -0.0180 nb         1 6YD      -0.691000
      6 C06          2.7480     1.1740    -0.0220 ca         1 6YD       0.472500
      7 C07          3.4080     2.4180    -0.0160 ca         1 6YD      -0.144000
      8 C08          2.6540     3.6010    -0.0050 ca         1 6YD      -0.079000
      9 C09          1.2550     3.4980    -0.0010 ca         1 6YD      -0.119000
     10 C10          3.5080    -0.0750    -0.0340 cc         1 6YD      -0.298500
     11 C11          4.8920    -0.2900    -0.0400 cc         1 6YD       0.264900
     12 N12          5.2280    -1.5640    -0.0500 nd         1 6YD      -0.533800
     13 N13          3.9920    -2.2030    -0.0500 na         1 6YD       0.132800
     14 C14          2.9180    -1.3070    -0.0410 cd         1 6YD      -0.105000
     15 C15         -2.6420     0.3010    -0.0100 cc         1 6YD       0.010600
     16 C16         -3.7910     1.0330    -0.0000 cd         1 6YD      -0.205000
     17 N17         -4.8180     0.0860    -0.0030 na         1 6YD       0.158800
     18 N18         -4.3480    -1.2190    -0.0150 nd         1 6YD      -0.515800
     19 C19         -3.0290    -1.0590    -0.0180 cc         1 6YD       0.147500
     20 C20         -6.2600     0.3640     0.0040 c3         1 6YD       0.071900
     21 C21         -2.0190    -2.1740    -0.0300 c          1 6YD       0.550600
     22 N22         -2.5270    -3.4290    -0.0380 nt         1 6YD      -0.589000
     23 O23         -0.8050    -2.0250    -0.0340 o          1 6YD      -0.643100
     24 C24          3.9030    -3.6700    -0.0610 c3         1 6YD       0.070900
     25 H1          -0.5790     0.1090    -0.0190 hn         1 6YD       0.382500
     26 H2           4.4920     2.4670    -0.0190 ha         1 6YD       0.126000
     27 H3           3.1420     4.5740     0.0000 ha         1 6YD       0.122000
     28 H4           0.6420     4.3960     0.0080 ha         1 6YD       0.145000
     29 H5           5.6780     0.4540    -0.0370 h4         1 6YD       0.035100
     30 H6           1.8780    -1.6160    -0.0390 h4         1 6YD       0.186000
     31 H7          -3.9690     2.1010     0.0080 h4         1 6YD       0.185000
     32 H8          -6.7180    -0.0560    -0.8990 h1         1 6YD       0.060700
     33 H9          -6.7160    -0.0920     0.8910 h1         1 6YD       0.060700
     34 H10         -6.4290     1.4470     0.0260 h1         1 6YD       0.060700
     35 H11         -3.5300    -3.5550    -0.0350 hn         1 6YD       0.323500
     36 H12         -1.9030    -4.2210    -0.0460 hn         1 6YD       0.323500
     37 H13          4.4040    -4.0730     0.8270 h1         1 6YD       0.058033
     38 H14          2.8500    -3.9770    -0.0530 h1         1 6YD       0.058033
     39 H15          4.3880    -4.0600    -0.9630 h1         1 6YD       0.058033
@<TRIPOS>BOND
     1     1     2 1   
     2     1    15 1   
     3     1    25 1   
     4     2     3 2   
     5     2     4 1   
     6     4     5 ar  
     7     4     9 ar  
     8     5     6 ar  
     9     6     7 ar  
    10     6    10 1   
    11     7     8 ar  
    12     7    26 1   
    13     8     9 ar  
    14     8    27 1   
    15     9    28 1   
    16    10    11 1   
    17    10    14 2   
    18    11    12 2   
    19    11    29 1   
    20    12    13 1   
    21    13    14 1   
    22    13    24 1   
    23    14    30 1   
    24    15    16 2   
    25    15    19 1   
    26    16    17 1   
    27    16    31 1   
    28    17    18 1   
    29    17    20 1   
    30    18    19 2   
    31    19    21 1   
    32    20    32 1   
    33    20    33 1   
    34    20    34 1   
    35    21    22 1   
    36    21    23 2   
    37    22    35 1   
    38    22    36 1   
    39    24    37 1   
    40    24    38 1   
    41    24    39 1   
@<TRIPOS>SUBSTRUCTURE
     1 6YD         1 TEMP              0 ****  ****    0 ROOT
