@<TRIPOS>MOLECULE
6YE
   46    49     1     0     0
SMALL
abcg2


@<TRIPOS>ATOM
      1 N01          2.2460     0.2430     0.0440 ns         1 6YE      -0.383100
      2 C02          0.9260     0.0100    -0.1990 c          1 6YE       0.670300
      3 O03          0.5060    -1.1080    -0.4610 o          1 6YE      -0.601100
      4 C04          0.0730     1.1870    -0.1260 cc         1 6YE      -0.409800
      5 C05          0.4220     2.5510    -0.0140 cc         1 6YE       0.436500
      6 N06         -0.6150     3.3540     0.0010 nd         1 6YE      -0.584100
      7 N07         -1.6730     2.5250    -0.1000 na         1 6YE       0.074900
      8 C08         -1.3280     1.1980    -0.1830 cd         1 6YE       0.506500
      9 N09         -2.2400     0.2400    -0.2790 nd         1 6YE      -0.751000
     10 C10         -3.5230     0.5720    -0.2990 cc         1 6YE       0.676900
     11 C11         -3.9240     1.9530    -0.2270 cc         1 6YE      -0.271000
     12 C12         -2.9700     2.9020    -0.1260 cd         1 6YE      -0.004000
     13 N13         -4.4270    -0.4190    -0.3960 nh         1 6YE      -0.774300
     14 C14         -5.8680    -0.2420    -0.3740 c6         1 6YE       0.218800
     15 C15         -6.4710    -1.0220     0.7840 c6         1 6YE       0.134800
     16 N16         -6.1040    -2.4200     0.6690 n7         1 6YE      -0.861400
     17 C17         -4.6630    -2.5820     0.7050 c6         1 6YE       0.134800
     18 C18         -4.0350    -1.8190    -0.4520 c6         1 6YE       0.218800
     19 C19          3.2520    -0.7000    -0.0370 cc         1 6YE       0.022600
     20 C20          4.6230    -0.4330     0.1670 cc         1 6YE       0.137500
     21 N21          5.3460    -1.5340     0.0060 nd         1 6YE      -0.515800
     22 N22          4.4920    -2.4800    -0.2950 na         1 6YE       0.155800
     23 C23          3.2090    -2.0480    -0.3320 cd         1 6YE      -0.211000
     24 C24          5.2270     0.8660     0.5060 c          1 6YE       0.549600
     25 N25          6.5570     0.8800     0.6300 nt         1 6YE      -0.587000
     26 O26          4.5190     1.8610     0.6650 o          1 6YE      -0.645100
     27 C27          4.9390    -3.8420    -0.4760 c3         1 6YE       0.070900
     28 H1           2.5660     1.1650     0.3040 hn         1 6YE       0.354500
     29 H2           1.4110     2.9830     0.0460 h4         1 6YE       0.057800
     30 H3          -4.9530     2.2710    -0.2510 ha         1 6YE       0.139000
     31 H4          -3.1750     3.9610    -0.0640 h4         1 6YE       0.161000
     32 H5          -6.1420     0.8040    -0.2860 h1         1 6YE       0.070200
     33 H6          -6.2810    -0.6080    -1.3190 h1         1 6YE       0.070200
     34 H7          -6.1340    -0.5640     1.7270 h1         1 6YE       0.043200
     35 H8          -7.5580    -0.9260     0.7440 h1         1 6YE       0.043200
     36 H9          -6.5270    -2.9460     1.4220 hn         1 6YE       0.417000
     37 H11         -4.2130    -2.2260     1.6450 h1         1 6YE       0.043200
     38 H12         -4.4140    -3.6400     0.6040 h1         1 6YE       0.043200
     39 H13         -4.3860    -2.2400    -1.4000 h1         1 6YE       0.070200
     40 H14         -2.9530    -1.8980    -0.4230 h1         1 6YE       0.070200
     41 H15          2.3960    -2.7120    -0.5590 h4         1 6YE       0.185000
     42 H16          7.1080     0.0530     0.4700 hn         1 6YE       0.323000
     43 H17          7.0390     1.7350     0.8540 hn         1 6YE       0.323000
     44 H18          5.0110    -4.3560     0.4810 h1         1 6YE       0.059033
     45 H19          4.2330    -4.3690    -1.1120 h1         1 6YE       0.059033
     46 H20          5.9140    -3.8360    -0.9550 h1         1 6YE       0.059033
@<TRIPOS>BOND
     1     1     2 1   
     2     1    19 1   
     3     1    28 1   
     4     2     3 2   
     5     2     4 1   
     6     4     5 1   
     7     4     8 2   
     8     5     6 2   
     9     5    29 1   
    10     6     7 1   
    11     7     8 1   
    12     7    12 1   
    13     8     9 1   
    14     9    10 2   
    15    10    11 1   
    16    10    13 1   
    17    11    12 2   
    18    11    30 1   
    19    12    31 1   
    20    13    14 1   
    21    13    18 1   
    22    14    15 1   
    23    14    32 1   
    24    14    33 1   
    25    15    16 1   
    26    15    34 1   
    27    15    35 1   
    28    16    17 1   
    29    16    36 1   
    30    17    18 1   
    31    17    37 1   
    32    17    38 1   
    33    18    39 1   
    34    18    40 1   
    35    19    20 1   
    36    19    23 2   
    37    20    21 2   
    38    20    24 1   
    39    21    22 1   
    40    22    23 1   
    41    22    27 1   
    42    23    41 1   
    43    24    25 1   
    44    24    26 2   
    45    25    42 1   
    46    25    43 1   
    47    27    44 1   
    48    27    45 1   
    49    27    46 1   
@<TRIPOS>SUBSTRUCTURE
     1 6YE         1 TEMP              0 ****  ****    0 ROOT
