@<TRIPOS>MOLECULE
6YE
   46    49     1     0     0
SMALL
No Charge or Current Charge


@<TRIPOS>ATOM
      1 N01          2.0580     0.1070     0.0190 ns         1 6YE      -0.383100
      2 C02          0.7050    -0.1200    -0.1340 c          1 6YE       0.670300
      3 O03          0.2370    -1.2430    -0.2380 o          1 6YE      -0.601100
      4 C04         -0.0920     1.1120    -0.1580 cc         1 6YE      -0.409800
      5 C05          0.3910     2.4440    -0.0440 cc         1 6YE       0.436500
      6 N06         -0.5340     3.3980    -0.0980 nd         1 6YE      -0.584100
      7 N07         -1.6530     2.6110    -0.2480 na         1 6YE       0.074900
      8 C08         -1.4350     1.2450    -0.2920 cd         1 6YE       0.506500
      9 N09         -2.3210     0.2030    -0.4360 nd         1 6YE      -0.751000
     10 C10         -3.5400     0.7090    -0.5380 cc         1 6YE       0.676900
     11 C11         -3.8830     2.1170    -0.5220 cc         1 6YE      -0.271000
     12 C12         -2.9360     3.1240    -0.3750 cd         1 6YE      -0.004000
     13 N13         -4.5840    -0.1740    -0.6840 nh         1 6YE      -0.774300
     14 C14         -5.7810    -0.1060     0.2200 c6         1 6YE       0.218800
     15 C15         -5.7400    -1.2150     1.3260 c6         1 6YE       0.134800
     16 N16         -5.5390    -2.5880     0.7740 n7         1 6YE      -0.861400
     17 C17         -4.3430    -2.6410    -0.1190 c6         1 6YE       0.134800
     18 C18         -4.3790    -1.5540    -1.2440 c6         1 6YE       0.218800
     19 C19          3.1090    -0.8050     0.0850 cc         1 6YE       0.022600
     20 C20          4.4770    -0.4860     0.2440 cc         1 6YE       0.137500
     21 N21          5.2580    -1.5600     0.2740 nd         1 6YE      -0.515800
     22 N22          4.3540    -2.6020     0.1280 na         1 6YE       0.155800
     23 C23          3.0320    -2.1620     0.0110 cd         1 6YE      -0.211000
     24 C24          4.9460     0.9380     0.3630 c          1 6YE       0.549600
     25 N25          6.2810     1.1080     0.5120 nt         1 6YE      -0.587000
     26 O26          4.2200     1.9230     0.3350 o          1 6YE      -0.645100
     27 C27          4.8130    -3.9970     0.1080 c3         1 6YE       0.070900
     28 H1           2.3190     1.0830     0.0940 hn         1 6YE       0.354500
     29 H2           1.4200     2.7570     0.0770 h4         1 6YE       0.057800
     30 H3          -4.9220     2.3910    -0.6480 ha         1 6YE       0.139000
     31 H4          -3.0980     4.1950    -0.3560 h4         1 6YE       0.161000
     32 H5          -5.8590     0.8710     0.7190 h1         1 6YE       0.070200
     33 H6          -6.6990    -0.2340    -0.3720 h1         1 6YE       0.070200
     34 H7          -4.9170    -0.9850     2.0190 h1         1 6YE       0.043200
     35 H8          -6.6730    -1.1850     1.9070 h1         1 6YE       0.043200
     36 H9          -5.4130    -3.2520     1.5500 hn         1 6YE       0.417000
     37 H11         -3.4350    -2.4920     0.4840 h1         1 6YE       0.043200
     38 H12         -4.2690    -3.6380    -0.5790 h1         1 6YE       0.043200
     39 H13         -5.2040    -1.7950    -1.9310 h1         1 6YE       0.070200
     40 H14         -3.4560    -1.6180    -1.8390 h1         1 6YE       0.070200
     41 H15          2.1930    -2.8350    -0.1100 h4         1 6YE       0.185000
     42 H16          6.8820     0.2970     0.5350 hn         1 6YE       0.323000
     43 H17          6.6600     2.0390     0.5970 hn         1 6YE       0.323000
     44 H18          5.3210    -4.2280     1.0520 h1         1 6YE       0.059033
     45 H19          3.9550    -4.6690    -0.0150 h1         1 6YE       0.059033
     46 H20          5.5090    -4.1410    -0.7260 h1         1 6YE       0.059033
@<TRIPOS>BOND
     1     1     2 1   
     2     1    19 1   
     3     1    28 1   
     4     2     3 2   
     5     2     4 1   
     6     4     5 1   
     7     4     8 2   
     8     5     6 2   
     9     5    29 1   
    10     6     7 1   
    11     7     8 1   
    12     7    12 1   
    13     8     9 1   
    14     9    10 2   
    15    10    11 1   
    16    10    13 1   
    17    11    12 2   
    18    11    30 1   
    19    12    31 1   
    20    13    14 1   
    21    13    18 1   
    22    14    15 1   
    23    14    32 1   
    24    14    33 1   
    25    15    16 1   
    26    15    34 1   
    27    15    35 1   
    28    16    17 1   
    29    16    36 1   
    30    17    18 1   
    31    17    37 1   
    32    17    38 1   
    33    18    39 1   
    34    18    40 1   
    35    19    20 1   
    36    19    23 2   
    37    20    21 2   
    38    20    24 1   
    39    21    22 1   
    40    22    23 1   
    41    22    27 1   
    42    23    41 1   
    43    24    25 1   
    44    24    26 2   
    45    25    42 1   
    46    25    43 1   
    47    27    44 1   
    48    27    45 1   
    49    27    46 1   
@<TRIPOS>SUBSTRUCTURE
     1 6YE         1 TEMP              0 ****  ****    0 ROOT
