@<TRIPOS>MOLECULE
6YF
   40    41     1     0     0
SMALL
bcc


@<TRIPOS>ATOM
      1 C1          -0.1070     3.5160    -1.1300 c3         1 6YF       0.118700
      2 O2          -0.6170     2.5490    -0.2280 os         1 6YF      -0.291900
      3 C3           0.0350     1.3910    -0.0960 ca         1 6YF       0.195100
      4 C4           1.2040     1.0510    -0.7710 ca         1 6YF      -0.247500
      5 C5           1.7620    -0.2010    -0.5570 ca         1 6YF       0.190600
      6 N6           2.9360    -0.5540    -1.2760 nu         1 6YF      -0.725500
      7 S7           4.3880    -0.7340    -0.5610 s6         1 6YF       1.208900
      8 O8           4.2280    -1.4090     0.7040 o          1 6YF      -0.543800
      9 O9           5.3230    -1.1790    -1.5680 o          1 6YF      -0.543800
     10 C10          4.9080     0.9870    -0.1280 c3         1 6YF       0.576700
     11 F11          4.1070     1.4730     0.8060 f          1 6YF      -0.223967
     12 F12          6.1500     0.9700     0.3200 f          1 6YF      -0.223967
     13 F13          4.8370     1.7530    -1.2050 f          1 6YF      -0.223967
     14 C14          1.1970    -1.1300     0.3030 ca         1 6YF      -0.247500
     15 C15          0.0430    -0.7790     1.0000 ca         1 6YF       0.195100
     16 O16         -0.6060    -1.5780     1.8510 os         1 6YF      -0.291900
     17 C17         -0.0810    -2.8710     2.1010 c3         1 6YF       0.118700
     18 C18         -0.5190     0.4800     0.8020 ca         1 6YF       0.003100
     19 O19         -1.6230     0.8430     1.5280 os         1 6YF      -0.205200
     20 C20         -2.8520     0.5540     1.0540 ca         1 6YF       0.183100
     21 C21         -3.9240     0.9210     1.8660 ca         1 6YF      -0.164000
     22 C22         -5.2100     0.6630     1.4500 ca         1 6YF      -0.049000
     23 C23         -5.4520     0.0380     0.2230 ca         1 6YF      -0.056000
     24 C24         -6.7860    -0.2230    -0.1940 cg         1 6YF       0.242800
     25 N25         -7.8760    -0.4230    -0.5100 n1         1 6YF      -0.357800
     26 C26         -4.3640    -0.3200    -0.5730 ca         1 6YF       0.093400
     27 CL          -4.6380    -1.0920    -2.0860 cl         1 6YF      -0.083400
     28 C28         -3.0670    -0.0680    -0.1710 ca         1 6YF      -0.209000
     29 H11C         0.8920     3.8530    -0.8410 h1         1 6YF       0.051200
     30 H12C        -0.0750     3.1370    -2.1540 h1         1 6YF       0.051200
     31 H13C        -0.7880     4.3610    -1.0890 h1         1 6YF       0.051200
     32 H4           1.6820     1.7390    -1.4540 ha         1 6YF       0.158500
     33 H6           2.9820    -0.2880    -2.2540 hn         1 6YF       0.467800
     34 H14          1.6390    -2.1090     0.4040 ha         1 6YF       0.158500
     35 H171        -0.7450    -3.3340     2.8250 h1         1 6YF       0.051200
     36 H172        -0.0610    -3.4810     1.1960 h1         1 6YF       0.051200
     37 H173         0.9260    -2.8220     2.5220 h1         1 6YF       0.051200
     38 H21         -3.7420     1.4060     2.8150 ha         1 6YF       0.159000
     39 H28         -2.2440    -0.3570    -0.8110 ha         1 6YF       0.158000
     40 H22         -6.0460     0.9450     2.0760 ha         1 6YF       0.150000
@<TRIPOS>BOND
     1     1     2 1   
     2     1    29 1   
     3     1    30 1   
     4     1    31 1   
     5     2     3 1   
     6     3     4 ar  
     7     3    18 ar  
     8     4     5 ar  
     9     4    32 1   
    10     5     6 1   
    11     5    14 ar  
    12     6     7 1   
    13     6    33 1   
    14     7     8 2   
    15     7     9 2   
    16     7    10 1   
    17    10    11 1   
    18    10    12 1   
    19    10    13 1   
    20    14    15 ar  
    21    14    34 1   
    22    15    16 1   
    23    15    18 ar  
    24    16    17 1   
    25    17    35 1   
    26    17    36 1   
    27    17    37 1   
    28    18    19 1   
    29    19    20 1   
    30    20    21 ar  
    31    20    28 ar  
    32    21    22 ar  
    33    21    38 1   
    34    22    23 ar  
    35    22    40 1   
    36    23    24 1   
    37    23    26 ar  
    38    24    25 3   
    39    26    27 1   
    40    26    28 ar  
    41    28    39 1   
@<TRIPOS>SUBSTRUCTURE
     1 6YF         1 TEMP              0 ****  ****    0 ROOT
