@<TRIPOS>MOLECULE
6YF
   40    41     1     0     0
SMALL
No Charge or Current Charge


@<TRIPOS>ATOM
      1 C1          -0.8300     3.2540    -1.4460 c3         1 6YF       0.141900
      2 O2          -1.0620     2.2960    -0.3980 os         1 6YF      -0.315100
      3 C3          -0.2150     1.2260    -0.1630 ca         1 6YF       0.195100
      4 C4           0.9580     1.0250    -0.9180 ca         1 6YF      -0.229500
      5 C5           1.8050    -0.0550    -0.6430 ca         1 6YF       0.329000
      6 N6           2.9430    -0.2010    -1.4210 nu         1 6YF      -0.919100
      7 S7           4.4670    -0.7240    -0.9600 s6         1 6YF       1.178100
      8 O8           4.3130    -2.1300    -0.5720 o          1 6YF      -0.473000
      9 O9           5.3150    -0.3770    -2.1040 o          1 6YF      -0.473000
     10 C10          4.9750     0.2890     0.5000 c3         1 6YF       0.102000
     11 F11          4.1740     0.0660     1.5700 f          1 6YF      -0.102667
     12 F12          6.2440     0.0010     0.8780 f          1 6YF      -0.102667
     13 F13          4.9230     1.6150     0.2230 f          1 6YF      -0.102667
     14 C14          1.4760    -0.9560     0.3790 ca         1 6YF      -0.229500
     15 C15          0.3080    -0.7700     1.1460 ca         1 6YF       0.195100
     16 O16         -0.0480    -1.6370     2.1640 os         1 6YF      -0.315100
     17 C17          0.7540    -2.7740     2.5290 c3         1 6YF       0.141900
     18 C18         -0.5410     0.3200     0.8700 ca         1 6YF       0.003100
     19 O19         -1.6850     0.4950     1.6240 os         1 6YF      -0.205200
     20 C20         -2.9490     0.4660     1.0770 ca         1 6YF       0.183100
     21 C21         -3.9920     1.1110     1.7580 ca         1 6YF      -0.146000
     22 C22         -5.2960     1.1000     1.2310 ca         1 6YF      -0.031000
     23 C23         -5.5620     0.4370     0.0170 ca         1 6YF      -0.056000
     24 C24         -6.8980     0.4360    -0.5100 cg         1 6YF       0.332000
     25 N25         -7.9890     0.4430    -0.9270 n1         1 6YF      -0.447000
     26 C26         -4.5130    -0.2200    -0.6610 ca         1 6YF       0.185000
     27 Cl          -4.7900    -1.0730    -2.1820 cl         1 6YF      -0.175000
     28 C28         -3.2130    -0.2080    -0.1310 ca         1 6YF      -0.191000
     29 H11C         0.1250     3.7740    -1.2960 h1         1 6YF       0.051200
     30 H12C        -0.8160     2.7630    -2.4270 h1         1 6YF       0.051200
     31 H13C        -1.6280     4.0070    -1.4540 h1         1 6YF       0.051200
     32 H4           1.2270     1.7060    -1.7180 ha         1 6YF       0.140500
     33 H6           3.1210     0.5190    -2.1100 hn         1 6YF       0.523000
     34 H14          2.1210    -1.8040     0.5690 ha         1 6YF       0.140500
     35 H171         0.2890    -3.3150     3.3620 h1         1 6YF       0.051200
     36 H172         0.8520    -3.4700     1.6860 h1         1 6YF       0.051200
     37 H173         1.7570    -2.4600     2.8460 h1         1 6YF       0.051200
     38 H21         -3.7880     1.6240     2.6940 ha         1 6YF       0.141000
     39 H28         -2.4190    -0.7260    -0.6610 ha         1 6YF       0.140000
     40 H22         -6.0960     1.6080     1.7670 ha         1 6YF       0.132000
@<TRIPOS>BOND
     1     1     2 1   
     2     1    29 1   
     3     1    30 1   
     4     1    31 1   
     5     2     3 1   
     6     3     4 ar  
     7     3    18 ar  
     8     4     5 ar  
     9     4    32 1   
    10     5     6 1   
    11     5    14 ar  
    12     6     7 1   
    13     6    33 1   
    14     7     8 2   
    15     7     9 2   
    16     7    10 1   
    17    10    11 1   
    18    10    12 1   
    19    10    13 1   
    20    14    15 ar  
    21    14    34 1   
    22    15    16 1   
    23    15    18 ar  
    24    16    17 1   
    25    17    35 1   
    26    17    36 1   
    27    17    37 1   
    28    18    19 1   
    29    19    20 1   
    30    20    21 ar  
    31    20    28 ar  
    32    21    22 ar  
    33    21    38 1   
    34    22    23 ar  
    35    22    40 1   
    36    23    24 1   
    37    23    26 ar  
    38    24    25 3   
    39    26    27 1   
    40    26    28 ar  
    41    28    39 1   
@<TRIPOS>SUBSTRUCTURE
     1 6YF         1 TEMP              0 ****  ****    0 ROOT
