@<TRIPOS>MOLECULE
6YG
   48    51     1     0     0
SMALL
abcg2


@<TRIPOS>ATOM
      1 N01         27.1270    35.8620    19.8560 nb         1 6YG      -0.277000
      2 C02         27.6320    37.0170    20.2970 ca         1 6YG       0.190300
      3 N03         27.7500    37.3550    21.5780 nb         1 6YG      -0.233000
      4 C04         27.3190    36.4860    22.5100 ca         1 6YG       0.243500
      5 C05         26.7840    35.2550    22.1470 ca         1 6YG      -0.232000
      6 C06         26.7190    34.9970    20.7830 ca         1 6YG       0.349300
      7 O07         26.2150    33.8250    20.3660 oh         1 6YG      -0.641300
      8 C08         28.1200    38.0520    19.3130 c6         1 6YG      -0.104000
      9 C09         27.3870    39.3740    19.5590 c6         1 6YG       0.166800
     10 N10         28.0010    40.4440    18.7830 n3         1 6YG      -0.729600
     11 C11         27.8940    40.1710    17.3510 c6         1 6YG       0.166800
     12 C12         28.5670    38.8470    16.9940 c6         1 6YG      -0.076400
     13 C13         28.0310    37.6850    17.8360 c6         1 6YG      -0.062400
     14 C14         27.4370    36.9270    23.8910 cc         1 6YG      -0.304500
     15 S15         28.0200    38.5300    24.2230 ss         1 6YG       0.296000
     16 C16         27.8530    38.2940    25.9130 cc         1 6YG      -0.246000
     17 C17         27.3750    37.0470    26.2150 cd         1 6YG      -0.143000
     18 C18         27.1350    36.2650    25.0580 cd         1 6YG      -0.096000
     19 C19         27.4650    41.7600    19.1350 c3         1 6YG       0.237100
     20 C20         27.6650    42.0450    20.5970 ca         1 6YG      -0.236300
     21 C21         26.6020    42.2360    21.4740 ca         1 6YG       0.156400
     22 N22         26.7580    42.3750    22.7900 nb         1 6YG      -0.217500
     23 C23         28.0110    42.3080    23.2400 ca         1 6YG       0.344300
     24 N24         29.1090    42.1700    22.5010 nb         1 6YG      -0.217500
     25 C25         28.9220    42.0410    21.1860 ca         1 6YG       0.156400
     26 O26         28.1170    42.3900    24.5730 os         1 6YG      -0.443300
     27 C27         29.4220    42.2540    25.1580 c3         1 6YG       0.161900
     28 H1          26.4280    34.5330    22.8670 ha         1 6YG       0.149000
     29 H3          29.1710    38.2310    19.5660 hc         1 6YG       0.084700
     30 H4          27.4430    39.6200    20.6150 h1         1 6YG       0.046200
     31 H5          26.3190    39.2520    19.3020 h1         1 6YG       0.046200
     32 H7          28.3640    40.9930    16.8070 h1         1 6YG       0.031700
     33 H8          26.8330    40.1390    17.0430 h1         1 6YG       0.031700
     34 H9          28.4170    38.6450    15.9320 hc         1 6YG       0.048200
     35 H10         29.6440    38.9460    17.1570 hc         1 6YG       0.048200
     36 H11         26.9870    37.4870    17.5760 hc         1 6YG       0.051700
     37 H12         28.5910    36.7720    17.6270 hc         1 6YG       0.051700
     38 H13         28.1160    39.0870    26.5960 h4         1 6YG       0.150000
     39 H14         27.2010    36.7010    27.2240 ha         1 6YG       0.135000
     40 H15         26.7560    35.2530    25.0850 ha         1 6YG       0.134000
     41 H16         27.9880    42.5010    18.5250 h1         1 6YG       0.040700
     42 H17         26.3920    41.8440    18.8960 h1         1 6YG       0.040700
     43 H18         25.5830    42.2630    21.1010 h4         1 6YG       0.031100
     44 H19         29.8140    41.9110    20.5810 h4         1 6YG       0.031100
     45 H20         29.2610    42.3210    26.2300 h1         1 6YG       0.050700
     46 H21         29.8570    41.2890    24.9000 h1         1 6YG       0.050700
     47 H22         30.0810    43.0540    24.8220 h1         1 6YG       0.050700
     48 H2          26.2370    33.8120    19.3950 ho         1 6YG       0.489000
@<TRIPOS>BOND
     1     1     2 ar  
     2     1     6 ar  
     3     2     3 ar  
     4     2     8 1   
     5     3     4 ar  
     6     4     5 ar  
     7     4    14 1   
     8     5     6 ar  
     9     5    28 1   
    10     6     7 1   
    11     7    48 1   
    12     8     9 1   
    13     8    13 1   
    14     8    29 1   
    15     9    10 1   
    16     9    30 1   
    17     9    31 1   
    18    10    11 1   
    19    10    19 1   
    20    11    12 1   
    21    11    32 1   
    22    11    33 1   
    23    12    13 1   
    24    12    34 1   
    25    12    35 1   
    26    13    36 1   
    27    13    37 1   
    28    14    15 1   
    29    14    18 2   
    30    15    16 1   
    31    16    17 2   
    32    16    38 1   
    33    17    18 1   
    34    17    39 1   
    35    18    40 1   
    36    19    20 1   
    37    19    41 1   
    38    19    42 1   
    39    20    21 ar  
    40    20    25 ar  
    41    21    22 ar  
    42    21    43 1   
    43    22    23 ar  
    44    23    24 ar  
    45    23    26 1   
    46    24    25 ar  
    47    25    44 1   
    48    26    27 1   
    49    27    45 1   
    50    27    46 1   
    51    27    47 1   
@<TRIPOS>SUBSTRUCTURE
     1 6YG         1 TEMP              0 ****  ****    0 ROOT
