@<TRIPOS>MOLECULE
6YG
   48    51     1     0     0
SMALL
No Charge or Current Charge


@<TRIPOS>ATOM
      1 N01         26.0670    36.8640    20.4320 nb         1 6YG      -0.277000
      2 C02         27.3110    37.1840    20.8520 ca         1 6YG       0.190300
      3 N03         27.8910    36.7830    22.0030 nb         1 6YG      -0.233000
      4 C04         27.1640    35.9870    22.8150 ca         1 6YG       0.243500
      5 C05         25.8600    35.6000    22.4580 ca         1 6YG      -0.232000
      6 C06         25.3530    36.0710    21.2440 ca         1 6YG       0.349300
      7 O07         24.1010    35.7370    20.8460 oh         1 6YG      -0.641300
      8 C08         28.1490    38.0920    19.9420 c6         1 6YG      -0.104000
      9 C09         27.4770    39.4740    19.7340 c6         1 6YG       0.166800
     10 N10         28.3200    40.3740    18.8910 n3         1 6YG      -0.729600
     11 C11         28.5960    39.7670    17.5600 c6         1 6YG       0.166800
     12 C12         29.2940    38.3920    17.6940 c6         1 6YG      -0.076400
     13 C13         28.4620    37.4310    18.5730 c6         1 6YG      -0.062400
     14 C14         27.7830    35.5370    24.0570 cc         1 6YG      -0.304500
     15 S15         28.9970    36.4270    24.9680 ss         1 6YG       0.296000
     16 C16         29.1430    35.0810    26.0980 cc         1 6YG      -0.246000
     17 C17         28.3280    34.0330    25.7390 cd         1 6YG      -0.143000
     18 C18         27.5600    34.2830    24.5690 cd         1 6YG      -0.096000
     19 C19         27.7670    41.7390    18.7720 c3         1 6YG       0.237100
     20 C20         27.6870    42.4490    20.1110 ca         1 6YG      -0.236300
     21 C21         26.4550    42.7990    20.6860 ca         1 6YG       0.156400
     22 N22         26.3860    43.4220    21.8790 nb         1 6YG      -0.217500
     23 C23         27.5480    43.7010    22.5060 ca         1 6YG       0.344300
     24 N24         28.7790    43.4010    22.0250 nb         1 6YG      -0.217500
     25 C25         28.8450    42.7780    20.8320 ca         1 6YG       0.156400
     26 O26         27.4390    44.3400    23.7250 os         1 6YG      -0.443300
     27 C27         28.6040    44.6890    24.5020 c3         1 6YG       0.161900
     28 H1          25.2580    34.9680    23.1010 ha         1 6YG       0.149000
     29 H3          29.1100    38.2810    20.4410 hc         1 6YG       0.084700
     30 H4          27.3050    39.9220    20.7240 h1         1 6YG       0.046200
     31 H5          26.4900    39.3360    19.2680 h1         1 6YG       0.046200
     32 H7          29.2410    40.4300    16.9650 h1         1 6YG       0.031700
     33 H8          27.6580    39.6390    16.9990 h1         1 6YG       0.031700
     34 H9          29.4480    37.9540    16.6990 hc         1 6YG       0.048200
     35 H10         30.2920    38.5300    18.1340 hc         1 6YG       0.048200
     36 H11         27.5290    37.1750    18.0520 hc         1 6YG       0.051700
     37 H12         29.0090    36.4900    18.7230 hc         1 6YG       0.051700
     38 H13         29.8280    35.1610    26.9330 h4         1 6YG       0.150000
     39 H14         28.2820    33.0990    26.2920 ha         1 6YG       0.135000
     40 H15         26.8830    33.5520    24.1350 ha         1 6YG       0.134000
     41 H16         28.4010    42.3420    18.1080 h1         1 6YG       0.040700
     42 H17         26.7670    41.7050    18.3160 h1         1 6YG       0.040700
     43 H18         25.5100    42.5770    20.1930 h4         1 6YG       0.031100
     44 H19         29.8380    42.5390    20.4560 h4         1 6YG       0.031100
     45 H20         28.3060    45.1860    25.4340 h1         1 6YG       0.050700
     46 H21         29.1820    43.7940    24.7650 h1         1 6YG       0.050700
     47 H22         29.2560    45.3750    23.9450 h1         1 6YG       0.050700
     48 H2          23.9620    36.1730    19.9770 ho         1 6YG       0.489000
@<TRIPOS>BOND
     1     1     2 ar  
     2     1     6 ar  
     3     2     3 ar  
     4     2     8 1   
     5     3     4 ar  
     6     4     5 ar  
     7     4    14 1   
     8     5     6 ar  
     9     5    28 1   
    10     6     7 1   
    11     7    48 1   
    12     8     9 1   
    13     8    13 1   
    14     8    29 1   
    15     9    10 1   
    16     9    30 1   
    17     9    31 1   
    18    10    11 1   
    19    10    19 1   
    20    11    12 1   
    21    11    32 1   
    22    11    33 1   
    23    12    13 1   
    24    12    34 1   
    25    12    35 1   
    26    13    36 1   
    27    13    37 1   
    28    14    15 1   
    29    14    18 2   
    30    15    16 1   
    31    16    17 2   
    32    16    38 1   
    33    17    18 1   
    34    17    39 1   
    35    18    40 1   
    36    19    20 1   
    37    19    41 1   
    38    19    42 1   
    39    20    21 ar  
    40    20    25 ar  
    41    21    22 ar  
    42    21    43 1   
    43    22    23 ar  
    44    23    24 ar  
    45    23    26 1   
    46    24    25 ar  
    47    25    44 1   
    48    26    27 1   
    49    27    45 1   
    50    27    46 1   
    51    27    47 1   
@<TRIPOS>SUBSTRUCTURE
     1 6YG         1 TEMP              0 ****  ****    0 ROOT
