@<TRIPOS>MOLECULE
6YH
   35    37     1     0     0
SMALL
No Charge or Current Charge


@<TRIPOS>ATOM
      1 O12         -1.2920    -0.8600     1.6800 o          1 6YH      -0.473100
      2 C11         -0.8120    -0.7690     0.5540 c          1 6YH       0.547700
      3 C4           0.6670    -0.4750     0.3710 ca         1 6YH      -0.125600
      4 C3           1.4640    -0.1550     1.4940 ca         1 6YH      -0.089000
      5 C2           2.8350     0.1200     1.3520 ca         1 6YH      -0.020000
      6 C5           1.2840    -0.5180    -0.9030 ca         1 6YH      -0.089000
      7 C6           2.6550    -0.2430    -1.0470 ca         1 6YH      -0.020000
      8 C1           3.4370     0.0800     0.0790 ca         1 6YH      -0.241500
      9 S7           5.1910     0.4310    -0.1050 sy         1 6YH       1.125600
     10 O9           5.6980     1.1810     1.0410 o          1 6YH      -0.538500
     11 N10          5.8840    -1.0360     0.0630 n8         1 6YH      -1.010100
     12 O8           5.5080     0.8030    -1.4820 o          1 6YH      -0.538500
     13 C13         -1.6910    -0.9550    -0.6990 c3         1 6YH      -0.019400
     14 N14         -3.1460    -1.0060    -0.4310 na         1 6YH      -0.179600
     15 C18         -3.9830     0.0730    -0.3490 ca         1 6YH      -0.072200
     16 C20         -3.7070     1.4380    -0.5250 ca         1 6YH      -0.114000
     17 C21         -4.7730     2.3500    -0.3810 ca         1 6YH      -0.091000
     18 C22         -6.0700     1.8820    -0.0680 ca         1 6YH      -0.134000
     19 C23         -6.3080     0.5010     0.1040 ca         1 6YH      -0.046000
     20 C19         -5.2340    -0.3900    -0.0430 ca         1 6YH       0.071400
     21 N17         -5.2560    -1.7700     0.0910 nc         1 6YH      -0.565100
     22 C16         -3.9690    -2.1090    -0.1440 cd         1 6YH       0.426700
     23 H1           1.0240    -0.1160     2.4890 ha         1 6YH       0.130000
     24 H2           3.4250     0.3630     2.2350 ha         1 6YH       0.143000
     25 H3           0.7170    -0.7700    -1.7970 ha         1 6YH       0.130000
     26 H4           3.1060    -0.2850    -2.0370 ha         1 6YH       0.143000
     27 H5           6.4590    -1.0640    -0.7770 hn         1 6YH       0.478000
     28 H6           6.5720    -0.8310     0.7840 hn         1 6YH       0.478000
     29 H7          -1.4830    -0.1280    -1.3880 h1         1 6YH       0.082200
     30 H8          -1.3830    -1.8870    -1.1880 h1         1 6YH       0.082200
     31 H9          -2.7060     1.7910    -0.7640 ha         1 6YH       0.114000
     32 H10         -4.5960     3.4150    -0.5110 ha         1 6YH       0.112000
     33 H11         -6.8890     2.5890     0.0430 ha         1 6YH       0.114000
     34 H12         -7.3010     0.1330     0.3480 ha         1 6YH       0.129000
     35 H13         -3.5670    -3.1150    -0.1240 h5         1 6YH       0.058800
@<TRIPOS>BOND
     1     1     2 2   
     2     2     3 1   
     3     2    13 1   
     4     3     4 ar  
     5     3     6 ar  
     6     4     5 ar  
     7     4    23 1   
     8     5     8 ar  
     9     5    24 1   
    10     6     7 ar  
    11     6    25 1   
    12     7     8 ar  
    13     7    26 1   
    14     8     9 1   
    15     9    10 2   
    16     9    11 1   
    17     9    12 2   
    18    11    27 1   
    19    11    28 1   
    20    13    14 1   
    21    13    29 1   
    22    13    30 1   
    23    14    15 1   
    24    14    22 1   
    25    15    16 ar  
    26    15    20 ar  
    27    16    17 ar  
    28    16    31 1   
    29    17    18 ar  
    30    17    32 1   
    31    18    19 ar  
    32    18    33 1   
    33    19    20 ar  
    34    19    34 1   
    35    20    21 1   
    36    21    22 2   
    37    22    35 1   
@<TRIPOS>SUBSTRUCTURE
     1 6YH         1 TEMP              0 ****  ****    0 ROOT
