@<TRIPOS>MOLECULE
6YH
   35    37     1     0     0
SMALL
abcg2


@<TRIPOS>ATOM
      1 O12         -1.3640    -0.4000     1.5450 o          1 6YH      -0.473100
      2 C11         -0.8130    -0.5260     0.4790 c          1 6YH       0.547700
      3 C4           0.6550    -0.3280     0.3310 ca         1 6YH      -0.125600
      4 C3           1.3870     0.0910     1.4400 ca         1 6YH      -0.089000
      5 C2           2.7520     0.2970     1.3430 ca         1 6YH      -0.020000
      6 C5           1.3080    -0.5450    -0.8820 ca         1 6YH      -0.089000
      7 C6           2.6720    -0.3450    -0.9900 ca         1 6YH      -0.020000
      8 C1           3.3800     0.0750     0.1270 ca         1 6YH      -0.241500
      9 S7           5.1240     0.3770    -0.0350 sy         1 6YH       1.125600
     10 O9           5.5830     0.9800     1.2080 o          1 6YH      -0.538500
     11 N10          5.6890    -1.1550    -0.2550 n8         1 6YH      -1.010100
     12 O8           5.3660     1.0820    -1.2830 o          1 6YH      -0.538500
     13 C13         -1.6080    -0.8890    -0.7660 c3         1 6YH      -0.019400
     14 N14         -3.0120    -0.9510    -0.4960 na         1 6YH      -0.179600
     15 C18         -3.8650     0.1160    -0.3670 ca         1 6YH      -0.072200
     16 C20         -3.6870     1.4830    -0.5430 ca         1 6YH      -0.114000
     17 C21         -4.7970     2.2840    -0.3360 ca         1 6YH      -0.091000
     18 C22         -6.0370     1.7380     0.0330 ca         1 6YH      -0.134000
     19 C23         -6.2020     0.3760     0.2080 ca         1 6YH      -0.046000
     20 C19         -5.0950    -0.4470     0.0070 ca         1 6YH       0.071400
     21 N17         -4.9720    -1.8140     0.1150 nc         1 6YH      -0.565100
     22 C16         -3.7300    -2.0600    -0.1790 cd         1 6YH       0.426700
     23 H1           0.8910     0.2650     2.3850 ha         1 6YH       0.130000
     24 H2           3.3090     0.6300     2.2080 ha         1 6YH       0.143000
     25 H3           0.7680    -0.8720    -1.7600 ha         1 6YH       0.130000
     26 H4           3.1680    -0.5190    -1.9350 ha         1 6YH       0.143000
     27 H5           6.5850    -1.1580    -0.7350 hn         1 6YH       0.478000
     28 H6           5.7480    -1.6840     0.6090 hn         1 6YH       0.478000
     29 H7          -1.4170    -0.1640    -1.5610 h1         1 6YH       0.082200
     30 H8          -1.2720    -1.8570    -1.1460 h1         1 6YH       0.082200
     31 H9          -2.7350     1.9110    -0.8280 ha         1 6YH       0.114000
     32 H10         -4.7070     3.3550    -0.4600 ha         1 6YH       0.112000
     33 H11         -6.8770     2.4020     0.1860 ha         1 6YH       0.114000
     34 H12         -7.1590    -0.0410     0.4960 ha         1 6YH       0.129000
     35 H13         -3.2750    -3.0400    -0.1970 h5         1 6YH       0.058800
@<TRIPOS>BOND
     1     1     2 2   
     2     2     3 1   
     3     2    13 1   
     4     3     4 ar  
     5     3     6 ar  
     6     4     5 ar  
     7     4    23 1   
     8     5     8 ar  
     9     5    24 1   
    10     6     7 ar  
    11     6    25 1   
    12     7     8 ar  
    13     7    26 1   
    14     8     9 1   
    15     9    10 2   
    16     9    11 1   
    17     9    12 2   
    18    11    27 1   
    19    11    28 1   
    20    13    14 1   
    21    13    29 1   
    22    13    30 1   
    23    14    15 1   
    24    14    22 1   
    25    15    16 ar  
    26    15    20 ar  
    27    16    17 ar  
    28    16    31 1   
    29    17    18 ar  
    30    17    32 1   
    31    18    19 ar  
    32    18    33 1   
    33    19    20 ar  
    34    19    34 1   
    35    20    21 1   
    36    21    22 2   
    37    22    35 1   
@<TRIPOS>SUBSTRUCTURE
     1 6YH         1 TEMP              0 ****  ****    0 ROOT
