@<TRIPOS>MOLECULE
6YI
   60    64     1     0     0
SMALL
No Charge or Current Charge


@<TRIPOS>ATOM
      1 N          -11.8360    -9.4510    17.9350 n          1 6YI      -0.404800
      2 CA         -12.7340   -10.5880    18.3650 c5         1 6YI       0.035700
      3 C          -12.0830   -12.0060    18.6050 c          1 6YI       0.589100
      4 O          -12.6460   -12.9600    19.1330 o          1 6YI      -0.573100
      5 CB         -13.3530   -10.0640    19.7180 c5         1 6YI      -0.293400
      6 CAF         -9.7680   -13.0190    18.3160 ca         1 6YI       0.044000
      7 CAG         -9.7420   -13.9360    19.3950 ca         1 6YI      -0.176000
      8 CAH         -8.6970   -14.8870    19.5110 ca         1 6YI      -0.044000
      9 CAI         -7.6630   -14.9320    18.5520 ca         1 6YI      -0.160000
     10 CAJ         -7.7180   -14.0090    17.5030 ca         1 6YI      -0.007200
     11 CAK         -8.7190   -13.0980    17.3910 ca         1 6YI      -0.278900
     12 CAL         -8.4400   -12.3640    16.1810 cc         1 6YI       0.353800
     13 CAQ        -11.2130    -8.7550    19.1110 c5         1 6YI      -0.097000
     14 CAT        -11.3320    -9.3710    16.6070 c          1 6YI       0.634100
     15 CAV        -10.6970    -7.9690    16.2470 c5         1 6YI      -0.064700
     16 CAW         -9.3520    -7.6760    16.9610 ca         1 6YI      -0.124300
     17 CAX         -8.2560    -8.5340    16.7250 ca         1 6YI      -0.071500
     18 CAY         -7.0250    -8.3330    17.3680 ca         1 6YI      -0.163000
     19 CAZ         -6.8550    -7.2700    18.2640 ca         1 6YI       0.143100
     20 CBA         -7.9380    -6.4030    18.5150 ca         1 6YI      -0.163000
     21 CBB         -9.1710    -6.6050    17.8710 ca         1 6YI      -0.071500
     22 CBD         -5.3490    -6.0620    19.8020 c3         1 6YI       0.147900
     23 CBE        -10.4110    -7.8530    14.7110 c5         1 6YI      -0.066400
     24 CBF        -11.8200    -7.6240    14.0760 c5         1 6YI      -0.079400
     25 CBG        -12.7220    -7.1100    15.2420 c5         1 6YI      -0.079400
     26 CBH        -11.7170    -6.7850    16.3780 c5         1 6YI      -0.066400
     27 NAE        -10.7690   -12.0300    18.1690 ns         1 6YI      -0.137000
     28 NAM         -7.3160   -12.7930    15.5840 nd         1 6YI      -0.513100
     29 NAN         -6.8750   -13.8220    16.4290 na         1 6YI      -0.076400
     30 OAU        -11.4700   -10.3130    15.8380 o          1 6YI      -0.619100
     31 OBC         -5.6230    -7.1210    18.8680 os         1 6YI      -0.345100
     32 SAP        -11.9260    -9.4140    20.6830 s6         1 6YI       1.076000
     33 H1         -13.5220   -10.7490    17.6160 h1         1 6YI       0.113700
     34 H2         -14.0270    -9.2130    19.5670 h1         1 6YI       0.130700
     35 H3         -13.8500   -10.8310    20.3220 h1         1 6YI       0.130700
     36 H4         -10.5150   -13.9110    20.1590 ha         1 6YI       0.147000
     37 H5          -8.6900   -15.5840    20.3470 ha         1 6YI       0.117000
     38 H6          -6.8570   -15.6580    18.6270 ha         1 6YI       0.123000
     39 H7          -8.9890   -11.5700    15.6930 h4         1 6YI       0.058800
     40 H8         -10.1360    -8.9510    19.1480 h2         1 6YI       0.116200
     41 H9         -11.4810    -7.6950    19.0930 h2         1 6YI       0.116200
     42 H10         -8.3550    -9.3670    16.0350 ha         1 6YI       0.117500
     43 H11         -6.1950    -9.0060    17.1700 ha         1 6YI       0.128000
     44 H12         -7.8440    -5.5710    19.2070 ha         1 6YI       0.128000
     45 H13         -9.9820    -5.9210    18.1060 ha         1 6YI       0.117500
     46 H14         -4.3140    -6.1280    20.1590 h1         1 6YI       0.043700
     47 H15         -5.4840    -5.0800    19.3300 h1         1 6YI       0.043700
     48 H16         -6.0140    -6.1280    20.6730 h1         1 6YI       0.043700
     49 H17         -9.9100    -8.7350    14.2950 hc         1 6YI       0.056700
     50 H18         -9.7580    -6.9980    14.4960 hc         1 6YI       0.056700
     51 H19        -11.7670    -6.8990    13.2550 hc         1 6YI       0.050950
     52 H20        -12.2240    -8.5490    13.6490 hc         1 6YI       0.050950
     53 H21        -13.3120    -6.2330    14.9530 hc         1 6YI       0.050950
     54 H22        -13.4390    -7.8800    15.5540 hc         1 6YI       0.050950
     55 H23        -11.2460    -5.8120    16.1920 hc         1 6YI       0.056700
     56 H24        -12.2140    -6.7220    17.3510 hc         1 6YI       0.056700
     57 H25        -10.4690   -11.1970    17.6820 hn         1 6YI       0.183000
     58 H26         -6.0260   -14.3500    16.2330 hn         1 6YI       0.377000
     59 OAR        -12.3540    -8.3290    21.5750 o          1 6YI      -0.507500
     60 OAS        -11.1150   -10.5260    21.1940 o          1 6YI      -0.507500
@<TRIPOS>BOND
     1     1     2 1   
     2     1    13 1   
     3     1    14 1   
     4     2     3 1   
     5     2     5 1   
     6     2    33 1   
     7     3     4 2   
     8     3    27 1   
     9     5    32 1   
    10     5    34 1   
    11     5    35 1   
    12     6     7 ar  
    13     6    11 ar  
    14     6    27 1   
    15     7     8 ar  
    16     7    36 1   
    17     8     9 ar  
    18     8    37 1   
    19     9    10 ar  
    20     9    38 1   
    21    10    11 ar  
    22    10    29 1   
    23    11    12 1   
    24    12    28 2   
    25    12    39 1   
    26    13    32 1   
    27    13    40 1   
    28    13    41 1   
    29    14    15 1   
    30    14    30 2   
    31    15    16 1   
    32    15    23 1   
    33    15    26 1   
    34    16    17 ar  
    35    16    21 ar  
    36    17    18 ar  
    37    17    42 1   
    38    18    19 ar  
    39    18    43 1   
    40    19    20 ar  
    41    19    31 1   
    42    20    21 ar  
    43    20    44 1   
    44    21    45 1   
    45    22    31 1   
    46    22    46 1   
    47    22    47 1   
    48    22    48 1   
    49    23    24 1   
    50    23    49 1   
    51    23    50 1   
    52    24    25 1   
    53    24    51 1   
    54    24    52 1   
    55    25    26 1   
    56    25    53 1   
    57    25    54 1   
    58    26    55 1   
    59    26    56 1   
    60    27    57 1   
    61    28    29 1   
    62    29    58 1   
    63    32    59 2   
    64    32    60 2   
@<TRIPOS>SUBSTRUCTURE
     1 6YI         1 TEMP              0 ****  ****    0 ROOT
