@<TRIPOS>MOLECULE
6YI
   60    64     1     0     0
SMALL
abcg2


@<TRIPOS>ATOM
      1 N          -11.7920    -9.3840    18.2030 n          1 6YI      -0.404800
      2 CA         -12.5070   -10.6010    18.6510 c5         1 6YI       0.035700
      3 C          -11.4630   -11.6570    19.0830 c          1 6YI       0.589100
      4 O          -11.2680   -11.9440    20.2530 o          1 6YI      -0.573100
      5 CB         -13.4430   -10.2120    19.7960 c5         1 6YI      -0.293400
      6 CAF         -9.6170   -12.9360    18.0160 ca         1 6YI       0.044000
      7 CAG         -9.1310   -13.6370    19.1070 ca         1 6YI      -0.176000
      8 CAH         -7.9420   -14.3910    19.0070 ca         1 6YI      -0.044000
      9 CAI         -7.2080   -14.4770    17.8430 ca         1 6YI      -0.160000
     10 CAJ         -7.7060   -13.7690    16.7420 ca         1 6YI      -0.007200
     11 CAK         -8.8920   -13.0040    16.8050 ca         1 6YI      -0.278900
     12 CAL         -9.0280   -12.4430    15.5020 cc         1 6YI       0.353800
     13 CAQ        -11.4520    -8.5240    19.3080 c5         1 6YI      -0.097000
     14 CAT        -11.4100    -9.2650    16.8960 c          1 6YI       0.634100
     15 CAV        -10.6400    -8.0070    16.4570 c5         1 6YI      -0.064700
     16 CAW         -9.3730    -7.8780    17.2880 ca         1 6YI      -0.124300
     17 CAX         -8.5580    -9.0040    17.4610 ca         1 6YI      -0.071500
     18 CAY         -7.3850    -8.9450    18.1910 ca         1 6YI      -0.163000
     19 CAZ         -6.9840    -7.7390    18.7730 ca         1 6YI       0.143100
     20 CBA         -7.7760    -6.6050    18.6060 ca         1 6YI      -0.163000
     21 CBB         -8.9570    -6.6870    17.8700 ca         1 6YI      -0.071500
     22 CBD         -5.3870    -6.5660    20.1130 c3         1 6YI       0.147900
     23 CBE        -10.2960    -8.1240    14.9490 c5         1 6YI      -0.066400
     24 CBF        -11.5640    -7.7050    14.1730 c5         1 6YI      -0.079400
     25 CBG        -12.5040    -7.0690    15.2230 c5         1 6YI      -0.079400
     26 CBH        -11.6130    -6.8020    16.4410 c5         1 6YI      -0.066400
     27 NAE        -10.7810   -12.1550    18.0220 ns         1 6YI      -0.137000
     28 NAM         -8.0360   -12.8260    14.7200 nd         1 6YI      -0.513100
     29 NAN         -7.2410   -13.6250    15.4710 na         1 6YI      -0.076400
     30 OAU        -11.6790   -10.1700    16.1080 o          1 6YI      -0.619100
     31 OBC         -5.8210    -7.7690    19.4790 os         1 6YI      -0.345100
     32 SAP        -12.9740    -8.5420    20.2940 s6         1 6YI       1.076000
     33 H1         -13.0730   -10.9780    17.8040 h1         1 6YI       0.113700
     34 H2         -14.4830   -10.1730    19.4820 h1         1 6YI       0.130700
     35 H3         -13.3170   -10.8620    20.6570 h1         1 6YI       0.130700
     36 H4          -9.6630   -13.6070    20.0430 ha         1 6YI       0.147000
     37 H5          -7.6000   -14.9220    19.8870 ha         1 6YI       0.117000
     38 H6          -6.2980   -15.0570    17.7800 ha         1 6YI       0.123000
     39 H7          -9.7950   -11.7860    15.1220 h4         1 6YI       0.058800
     40 H8         -10.6460    -8.9250    19.9260 h2         1 6YI       0.116200
     41 H9         -11.2430    -7.5010    19.0290 h2         1 6YI       0.116200
     42 H10         -8.8420    -9.9490    17.0170 ha         1 6YI       0.117500
     43 H11         -6.7690    -9.8250    18.3220 ha         1 6YI       0.128000
     44 H12         -7.4940    -5.6590    19.0440 ha         1 6YI       0.128000
     45 H13         -9.5570    -5.7930    17.7720 ha         1 6YI       0.117500
     46 H14         -4.4600    -6.8150    20.6240 h1         1 6YI       0.043700
     47 H15         -5.1990    -5.7790    19.3770 h1         1 6YI       0.043700
     48 H16         -6.1250    -6.2170    20.8390 h1         1 6YI       0.043700
     49 H17         -9.9430    -9.1220    14.6970 hc         1 6YI       0.056700
     50 H18         -9.4830    -7.4250    14.7560 hc         1 6YI       0.056700
     51 H19        -11.3090    -6.9900    13.3900 hc         1 6YI       0.050950
     52 H20        -12.0370    -8.5600    13.6900 hc         1 6YI       0.050950
     53 H21        -12.9840    -6.1580    14.8650 hc         1 6YI       0.050950
     54 H22        -13.2990    -7.7670    15.4930 hc         1 6YI       0.050950
     55 H23        -11.0300    -5.8940    16.2800 hc         1 6YI       0.056700
     56 H24        -12.1860    -6.6700    17.3580 hc         1 6YI       0.056700
     57 H25        -11.0660   -11.7760    17.1240 hn         1 6YI       0.183000
     58 H26         -6.4120   -14.0290    15.0670 hn         1 6YI       0.377000
     59 OAR        -13.9140    -7.5910    19.7340 o          1 6YI      -0.507500
     60 OAS        -12.6690    -8.4590    21.7070 o          1 6YI      -0.507500
@<TRIPOS>BOND
     1     1     2 1   
     2     1    13 1   
     3     1    14 1   
     4     2     3 1   
     5     2     5 1   
     6     2    33 1   
     7     3     4 2   
     8     3    27 1   
     9     5    32 1   
    10     5    34 1   
    11     5    35 1   
    12     6     7 ar  
    13     6    11 ar  
    14     6    27 1   
    15     7     8 ar  
    16     7    36 1   
    17     8     9 ar  
    18     8    37 1   
    19     9    10 ar  
    20     9    38 1   
    21    10    11 ar  
    22    10    29 1   
    23    11    12 1   
    24    12    28 2   
    25    12    39 1   
    26    13    32 1   
    27    13    40 1   
    28    13    41 1   
    29    14    15 1   
    30    14    30 2   
    31    15    16 1   
    32    15    23 1   
    33    15    26 1   
    34    16    17 ar  
    35    16    21 ar  
    36    17    18 ar  
    37    17    42 1   
    38    18    19 ar  
    39    18    43 1   
    40    19    20 ar  
    41    19    31 1   
    42    20    21 ar  
    43    20    44 1   
    44    21    45 1   
    45    22    31 1   
    46    22    46 1   
    47    22    47 1   
    48    22    48 1   
    49    23    24 1   
    50    23    49 1   
    51    23    50 1   
    52    24    25 1   
    53    24    51 1   
    54    24    52 1   
    55    25    26 1   
    56    25    53 1   
    57    25    54 1   
    58    26    55 1   
    59    26    56 1   
    60    27    57 1   
    61    28    29 1   
    62    29    58 1   
    63    32    59 2   
    64    32    60 2   
@<TRIPOS>SUBSTRUCTURE
     1 6YI         1 TEMP              0 ****  ****    0 ROOT
