@<TRIPOS>MOLECULE
6YJ
   33    33     1     0     0
SMALL
abcg2


@<TRIPOS>ATOM
      1 N3          -0.5910    -0.9280     1.3410 n8         1 6YJ      -0.969200
      2 C20          4.2100     0.4390     0.2800 ca         1 6YJ       0.263000
      3 C21          3.3650     1.2310    -0.5050 ca         1 6YJ      -0.173500
      4 C18          2.5330    -1.3050     0.1920 ca         1 6YJ      -0.074500
      5 C16          0.3200    -0.9960    -0.9970 c3         1 6YJ      -0.074100
      6 C19          3.7700    -0.8440     0.6190 ca         1 6YJ      -0.173500
      7 C26         -3.4800     1.0230     0.2740 c          1 6YJ       0.720000
      8 C15         -0.7930    -0.5220    -0.0410 c3         1 6YJ       0.162500
      9 C17          1.6850    -0.5210    -0.5880 ca         1 6YJ      -0.100300
     10 C22          2.1330     0.7550    -0.9240 ca         1 6YJ      -0.074500
     11 C23         -2.1510    -1.0050    -0.5400 c3         1 6YJ      -0.030400
     12 C24         -3.3500    -0.5120     0.2610 c3         1 6YJ      -0.189700
     13 C25         -4.6410    -1.1070    -0.3050 c3         1 6YJ      -0.061100
     14 H10         -0.5480    -1.9410     1.3910 hn         1 6YJ       0.373000
     15 H20          3.6790     2.2290    -0.7920 ha         1 6YJ       0.102500
     16 H23          2.2280    -2.3080     0.4690 ha         1 6YJ       0.113500
     17 H24          0.3010    -2.0910    -1.0380 hc         1 6YJ       0.041700
     18 H25          0.0920    -0.6430    -2.0070 hc         1 6YJ       0.041700
     19 H26          4.4010    -1.4850     1.2240 ha         1 6YJ       0.102500
     20 H35         -0.7930     0.5740    -0.0600 h1         1 6YJ       0.097700
     21 H36          1.5060     1.3960    -1.5340 ha         1 6YJ       0.113500
     22 H37          6.1040     0.2270     0.9730 hn         1 6YJ       0.433000
     23 H38          5.8200     1.6680     0.1960 hn         1 6YJ       0.433000
     24 H39         -2.2680    -0.7000    -1.5840 hc         1 6YJ       0.014200
     25 H40         -2.1490    -2.1030    -0.5430 hc         1 6YJ       0.014200
     26 H41         -3.2410    -0.8520     1.2940 hc         1 6YJ       0.048700
     27 H42         -5.5130    -0.7920     0.2720 hc         1 6YJ       0.009700
     28 H43         -4.7940    -0.7940    -1.3400 hc         1 6YJ       0.009700
     29 H44         -4.6140    -2.1990    -0.2910 hc         1 6YJ       0.009700
     30 H2           0.3110    -0.5990     1.6660 hn         1 6YJ       0.373000
     31 N4           5.4160     0.9290     0.7490 nv         1 6YJ      -1.068000
     32 O3          -3.2200     1.6260    -0.7890 o          1 6YJ      -0.743000
     33 O4          -3.8860     1.5470     1.3330 o          1 6YJ      -0.743000
@<TRIPOS>BOND
     1     1     8 1   
     2     1    14 1   
     3     1    30 1   
     4     2     3 ar  
     5     2     6 ar  
     6     2    31 1   
     7     3    10 ar  
     8     3    15 1   
     9     4     6 ar  
    10     4     9 ar  
    11     4    16 1   
    12     5     8 1   
    13     5     9 1   
    14     5    17 1   
    15     5    18 1   
    16     6    19 1   
    17     7    12 1   
    18     7    32 1   
    19     7    33 1   
    20     8    11 1   
    21     8    20 1   
    22     9    10 ar  
    23    10    21 1   
    24    11    12 1   
    25    11    24 1   
    26    11    25 1   
    27    12    13 1   
    28    12    26 1   
    29    13    27 1   
    30    13    28 1   
    31    13    29 1   
    32    22    31 1   
    33    23    31 1   
@<TRIPOS>SUBSTRUCTURE
     1 6YJ         1 TEMP              0 ****  ****    0 ROOT
