@<TRIPOS>MOLECULE
6YJ
   33    33     1     0     0
SMALL
No Charge or Current Charge


@<TRIPOS>ATOM
      1 N3          -0.5640    -0.8860     1.3780 n8         1 6YJ      -0.969200
      2 C20          4.2550     0.4360     0.2560 ca         1 6YJ       0.263000
      3 C21          3.3110     1.2990    -0.3200 ca         1 6YJ      -0.173500
      4 C18          2.6720    -1.4060     0.0750 ca         1 6YJ      -0.074500
      5 C16          0.3470    -1.0690    -0.9170 c3         1 6YJ      -0.074100
      6 C19          3.9350    -0.9150     0.4530 ca         1 6YJ      -0.173500
      7 C26         -3.4710     1.0890     0.0720 c          1 6YJ       0.720000
      8 C15         -0.8140    -0.5380    -0.0380 c3         1 6YJ       0.162500
      9 C17          1.7190    -0.5430    -0.5010 ca         1 6YJ      -0.100300
     10 C22          2.0470     0.8130    -0.6990 ca         1 6YJ      -0.074500
     11 C23         -2.1950    -1.0700    -0.5160 c3         1 6YJ      -0.030400
     12 C24         -3.4330    -0.4530     0.1980 c3         1 6YJ      -0.189700
     13 C25         -4.7540    -1.0810    -0.3090 c3         1 6YJ      -0.061100
     14 H10         -0.6350    -1.9030     1.4810 hn         1 6YJ       0.373000
     15 H20          3.5520     2.3470    -0.4770 ha         1 6YJ       0.102500
     16 H23          2.4360    -2.4560     0.2320 ha         1 6YJ       0.113500
     17 H24          0.3370    -2.1660    -0.9020 hc         1 6YJ       0.041700
     18 H25          0.1560    -0.7850    -1.9590 hc         1 6YJ       0.041700
     19 H26          4.6610    -1.5900     0.8980 ha         1 6YJ       0.102500
     20 H35         -0.8160     0.5600    -0.1280 h1         1 6YJ       0.097700
     21 H36          1.3240     1.4900    -1.1480 ha         1 6YJ       0.113500
     22 H37          6.2110     0.2640     0.9240 hn         1 6YJ       0.433000
     23 H38          5.7640     1.8570     0.3690 hn         1 6YJ       0.433000
     24 H39         -2.2870    -0.8850    -1.5940 hc         1 6YJ       0.014200
     25 H40         -2.2190    -2.1610    -0.3930 hc         1 6YJ       0.014200
     26 H41         -3.3670    -0.6940     1.2650 hc         1 6YJ       0.048700
     27 H42         -5.6120    -0.6530     0.2230 hc         1 6YJ       0.009700
     28 H43         -4.8890    -0.9000    -1.3820 hc         1 6YJ       0.009700
     29 H44         -4.7560    -2.1650    -0.1410 hc         1 6YJ       0.009700
     30 H2           0.4220    -0.6900     1.5800 hn         1 6YJ       0.373000
     31 N4           5.4850     0.9110     0.6230 nv         1 6YJ      -1.068000
     32 O3          -3.5080     1.5850    -1.0450 o          1 6YJ      -0.743000
     33 O4          -3.4730     1.7540     1.0970 o          1 6YJ      -0.743000
@<TRIPOS>BOND
     1     1     8 1   
     2     1    14 1   
     3     1    30 1   
     4     2     3 ar  
     5     2     6 ar  
     6     2    31 1   
     7     3    10 ar  
     8     3    15 1   
     9     4     6 ar  
    10     4     9 ar  
    11     4    16 1   
    12     5     8 1   
    13     5     9 1   
    14     5    17 1   
    15     5    18 1   
    16     6    19 1   
    17     7    12 1   
    18     7    32 1   
    19     7    33 1   
    20     8    11 1   
    21     8    20 1   
    22     9    10 ar  
    23    10    21 1   
    24    11    12 1   
    25    11    24 1   
    26    11    25 1   
    27    12    13 1   
    28    12    26 1   
    29    13    27 1   
    30    13    28 1   
    31    13    29 1   
    32    22    31 1   
    33    23    31 1   
@<TRIPOS>SUBSTRUCTURE
     1 6YJ         1 TEMP              0 ****  ****    0 ROOT
