@<TRIPOS>MOLECULE
6YK
  109   111     1     0     0
SMALL
No Charge or Current Charge


@<TRIPOS>ATOM
      1 C36          7.2980    -1.0200     0.6070 c5         1 6YK       0.180800
      2 C35          7.5970    -1.9300    -0.6220 c5         1 6YK      -0.078400
      3 C33          6.1890    -3.1530     0.9330 c5         1 6YK       0.141200
      4 C34          7.3410    -3.3720    -0.0910 c5         1 6YK      -0.073400
      5 C32          4.8390    -2.9460     0.1050 c          1 6YK       0.576100
      6 O7           4.3250    -3.7460    -0.6690 o          1 6YK      -0.622100
      7 N6           6.8130    -1.9730     1.6420 n3         1 6YK      -0.756600
      8 C38          5.9990    -4.3710     1.8700 c3         1 6YK      -0.087100
      9 N5           4.2880    -1.7120     0.3620 ns         1 6YK      -0.480900
     10 C5           3.0350    -1.1810    -0.2190 c3         1 6YK       0.030700
     11 C6           3.1890     0.3450    -0.5420 c          1 6YK       0.596100
     12 O1           4.1140     0.9910    -0.0580 o          1 6YK      -0.625100
     13 C3           1.7780    -1.5090     0.6640 c3         1 6YK      -0.063700
     14 C2           1.9910    -1.3780     2.2020 c3         1 6YK      -0.072400
     15 C4           1.2020    -2.9030     0.3200 c3         1 6YK      -0.090100
     16 C1           2.3440     0.0390     2.6940 c3         1 6YK      -0.102100
     17 N1           2.2240     0.9800    -1.3730 n          1 6YK      -0.403800
     18 C7           1.3270     0.1790    -2.2510 c3         1 6YK       0.078300
     19 C8           2.2600     2.4610    -1.5900 c3         1 6YK       0.104700
     20 C29          2.8730     2.8470    -2.9830 c3         1 6YK      -0.069700
     21 C30          3.0740     4.3760    -3.1530 c3         1 6YK      -0.088100
     22 C31          4.2130     2.1180    -3.2660 c3         1 6YK      -0.088100
     23 C9           0.8590     3.0890    -1.3380 c3         1 6YK      -0.084400
     24 C10          0.3040     2.8340     0.0840 c3         1 6YK       0.141000
     25 O5           0.9820     3.7610     0.9680 os         1 6YK      -0.454100
     26 C27          0.7790     3.6700     2.3220 c          1 6YK       0.591100
     27 O6           0.0370     2.8650     2.8640 o          1 6YK      -0.459000
     28 C28          1.5850     4.7160     3.0760 c3         1 6YK      -0.154100
     29 C11         -1.2020     3.0130     0.1430 cc         1 6YK       0.396700
     30 N2          -2.0390     1.9840     0.1310 nd         1 6YK      -0.619000
     31 C12         -3.3630     2.4340     0.1220 cd         1 6YK       0.233500
     32 C14         -4.5870     1.5560     0.0940 c          1 6YK       0.526600
     33 O2          -5.7470     1.9560     0.0560 o          1 6YK      -0.612100
     34 C13         -3.4840     3.8090     0.1210 cc         1 6YK      -0.200000
     35 S1          -1.9320     4.5980     0.1320 ss         1 6YK      -0.038400
     36 N3          -4.2600     0.2150     0.1030 ns         1 6YK      -0.474900
     37 C20         -1.7960    -1.3520    -3.9330 ca         1 6YK       0.261000
     38 C21         -3.1060    -0.8540    -3.9510 ca         1 6YK      -0.179000
     39 C18         -2.2130    -2.3560    -1.7560 ca         1 6YK      -0.070500
     40 C16         -4.4700    -2.1470    -0.5900 c3         1 6YK      -0.050100
     41 C19         -1.3520    -2.1040    -2.8380 ca         1 6YK      -0.179000
     42 C26         -7.5740    -2.5130     2.7400 c          1 6YK       0.720000
     43 C15         -5.2020    -0.8980    -0.0260 c3         1 6YK       0.113700
     44 C17         -3.5320    -1.8580    -1.7650 ca         1 6YK      -0.098300
     45 C22         -3.9750    -1.1090    -2.8760 ca         1 6YK      -0.070500
     46 C23         -5.9270    -1.1610     1.3240 c3         1 6YK      -0.067400
     47 C24         -7.0190    -2.2730     1.3130 c3         1 6YK      -0.193700
     48 C25         -8.1690    -1.9830     0.3150 c3         1 6YK      -0.064100
     49 H1           8.2000    -0.4940     0.9490 h1         1 6YK       0.039700
     50 H2           6.5460    -0.2590     0.3580 h1         1 6YK       0.039700
     51 H3           6.9270    -1.6870    -1.4550 hc         1 6YK       0.046700
     52 H4           8.6220    -1.8040    -0.9890 hc         1 6YK       0.046700
     53 H5           5.2360    -0.9120     2.6410 h1         1 6YK       0.034367
     54 H6           6.0010    -2.1920     3.6070 h1         1 6YK       0.034367
     55 H7           6.8540    -0.6650     3.3200 h1         1 6YK       0.034367
     56 H8           7.0790    -4.0740    -0.8910 hc         1 6YK       0.056200
     57 H9           8.2370    -3.7700     0.3990 hc         1 6YK       0.056200
     58 H57          5.1670    -4.2100     2.5640 hc         1 6YK       0.045700
     59 H58          5.7810    -5.2800     1.2970 hc         1 6YK       0.045700
     60 H59          6.9010    -4.5610     2.4640 hc         1 6YK       0.045700
     61 H22          4.8400    -1.1080     0.9610 hn         1 6YK       0.334500
     62 H33          2.9040    -1.6670    -1.1930 h1         1 6YK       0.086700
     63 H32          0.9890    -0.7950     0.4050 hc         1 6YK       0.061700
     64 H30          1.0650    -1.6800     2.7060 hc         1 6YK       0.039200
     65 H31          2.7620    -2.0820     2.5400 hc         1 6YK       0.039200
     66 H11          1.8910    -3.7000     0.6250 hc         1 6YK       0.037700
     67 H12          0.2480    -3.0660     0.8350 hc         1 6YK       0.037700
     68 H13          1.0210    -2.9980    -0.7570 hc         1 6YK       0.037700
     69 H27          2.3230     0.0770     3.7900 hc         1 6YK       0.044367
     70 H28          3.3440     0.3410     2.3690 hc         1 6YK       0.044367
     71 H29          1.6200     0.7680     2.3150 hc         1 6YK       0.044367
     72 H14          0.5100    -0.2550    -1.6640 h1         1 6YK       0.048367
     73 H15          0.8850     0.8040    -3.0360 h1         1 6YK       0.048367
     74 H16          1.8910    -0.6210    -2.7450 h1         1 6YK       0.048367
     75 H21          2.9210     2.9040    -0.8320 h1         1 6YK       0.093700
     76 H49          2.1710     2.5320    -3.7640 hc         1 6YK       0.046700
     77 H50          3.6720     4.7860    -2.3300 hc         1 6YK       0.035533
     78 H51          3.5940     4.5970    -4.0930 hc         1 6YK       0.035533
     79 H52          2.1170     4.9080    -3.1870 hc         1 6YK       0.035533
     80 H53          4.0790     1.0300    -3.2920 hc         1 6YK       0.035533
     81 H54          4.6200     2.4170    -4.2400 hc         1 6YK       0.035533
     82 H55          4.9570     2.3570    -2.4980 hc         1 6YK       0.035533
     83 H17          0.8910     4.1730    -1.4910 hc         1 6YK       0.066700
     84 H18          0.1480     2.7020    -2.0770 hc         1 6YK       0.066700
     85 H34          0.5170     1.7980     0.3760 h1         1 6YK       0.101700
     86 H46          2.6420     4.6060     2.8090 hc         1 6YK       0.067700
     87 H47          1.3450     5.7050     2.6710 hc         1 6YK       0.067700
     88 H48          1.4300     4.6680     4.1590 hc         1 6YK       0.067700
     89 H19         -4.3900     4.4020     0.1110 h4         1 6YK       0.179000
     90 H10         -3.2660     0.0110     0.1110 hn         1 6YK       0.329500
     91 H20         -3.4580    -0.2730    -4.7990 ha         1 6YK       0.103500
     92 H23         -1.8550    -2.9430    -0.9130 ha         1 6YK       0.116000
     93 H24         -3.9070    -2.6150     0.2270 hc         1 6YK       0.064200
     94 H25         -5.2170    -2.8850    -0.9050 hc         1 6YK       0.064200
     95 H26         -0.3400    -2.4990    -2.8220 ha         1 6YK       0.103500
     96 H35         -5.9550    -0.5920    -0.7640 h1         1 6YK       0.060700
     97 H36         -4.9920    -0.7250    -2.9090 ha         1 6YK       0.116000
     98 H37         -0.0770    -1.6160    -5.0530 hn         1 6YK       0.436500
     99 H38         -1.3250    -0.6950    -5.8390 hn         1 6YK       0.436500
    100 H39         -5.1740    -1.4180     2.0790 hc         1 6YK       0.057700
    101 H40         -6.3870    -0.2250     1.6620 hc         1 6YK       0.057700
    102 H41         -6.5440    -3.2080     0.9950 hc         1 6YK       0.019700
    103 H42         -8.6410    -1.0170     0.5290 hc         1 6YK       0.014700
    104 H43         -7.8010    -1.9670    -0.7170 hc         1 6YK       0.014700
    105 H44         -8.9370    -2.7630     0.3830 hc         1 6YK       0.014700
    106 C37          6.1880    -1.4080     2.8620 c3         1 6YK       0.168100
    107 N4          -0.9580    -1.1120    -4.9870 nv         1 6YK      -1.077000
    108 O3          -8.1530    -1.5980     3.3080 o          1 6YK      -0.734500
    109 O4          -7.4040    -3.6140     3.2440 o          1 6YK      -0.734500
@<TRIPOS>BOND
     1     1     2 1   
     2     1     7 1   
     3     1    49 1   
     4     1    50 1   
     5     2     4 1   
     6     2    51 1   
     7     2    52 1   
     8     3     4 1   
     9     3     5 1   
    10     3     7 1   
    11     3     8 1   
    12     4    56 1   
    13     4    57 1   
    14     5     6 2   
    15     5     9 1   
    16     7   106 1   
    17     8    58 1   
    18     8    59 1   
    19     8    60 1   
    20     9    10 1   
    21     9    61 1   
    22    10    11 1   
    23    10    13 1   
    24    10    62 1   
    25    11    12 2   
    26    11    17 1   
    27    13    14 1   
    28    13    15 1   
    29    13    63 1   
    30    14    16 1   
    31    14    64 1   
    32    14    65 1   
    33    15    66 1   
    34    15    67 1   
    35    15    68 1   
    36    16    69 1   
    37    16    70 1   
    38    16    71 1   
    39    17    18 1   
    40    17    19 1   
    41    18    72 1   
    42    18    73 1   
    43    18    74 1   
    44    19    20 1   
    45    19    23 1   
    46    19    75 1   
    47    20    21 1   
    48    20    22 1   
    49    20    76 1   
    50    21    77 1   
    51    21    78 1   
    52    21    79 1   
    53    22    80 1   
    54    22    81 1   
    55    22    82 1   
    56    23    24 1   
    57    23    83 1   
    58    23    84 1   
    59    24    25 1   
    60    24    29 1   
    61    24    85 1   
    62    25    26 1   
    63    26    27 2   
    64    26    28 1   
    65    28    86 1   
    66    28    87 1   
    67    28    88 1   
    68    29    30 2   
    69    29    35 1   
    70    30    31 1   
    71    31    32 1   
    72    31    34 2   
    73    32    33 2   
    74    32    36 1   
    75    34    35 1   
    76    34    89 1   
    77    36    43 1   
    78    36    90 1   
    79    37    38 ar  
    80    37    41 ar  
    81    37   107 1   
    82    38    45 ar  
    83    38    91 1   
    84    39    41 ar  
    85    39    44 ar  
    86    39    92 1   
    87    40    43 1   
    88    40    44 1   
    89    40    93 1   
    90    40    94 1   
    91    41    95 1   
    92    42    47 1   
    93    42   108 1   
    94    42   109 1   
    95    43    46 1   
    96    43    96 1   
    97    44    45 ar  
    98    45    97 1   
    99    46    47 1   
   100    46   100 1   
   101    46   101 1   
   102    47    48 1   
   103    47   102 1   
   104    48   103 1   
   105    48   104 1   
   106    48   105 1   
   107    53   106 1   
   108    54   106 1   
   109    55   106 1   
   110    98   107 1   
   111    99   107 1   
@<TRIPOS>SUBSTRUCTURE
     1 6YK         1 TEMP              0 ****  ****    0 ROOT
