@<TRIPOS>MOLECULE
6YK
  109   111     1     0     0
SMALL
bcc


@<TRIPOS>ATOM
      1 C36          8.1540    -2.4250    -0.3430 c5         1 6YK       0.180800
      2 C35          8.1880    -3.7810     0.3380 c5         1 6YK      -0.078400
      3 C33          6.1570    -2.5530     0.9430 c5         1 6YK       0.141200
      4 C34          6.7330    -3.9810     0.7680 c5         1 6YK      -0.073400
      5 C32          4.9630    -2.3570    -0.0120 c          1 6YK       0.643100
      6 O7           5.0290    -2.7290    -1.1760 o          1 6YK      -0.622100
      7 N6           7.2520    -1.6770     0.5060 n3         1 6YK      -0.756600
      8 C38          5.8390    -2.2640     2.4080 c3         1 6YK      -0.087100
      9 N5           3.8940    -1.7010     0.4770 ns         1 6YK      -0.547900
     10 C5           2.8330    -1.1930    -0.3530 c3         1 6YK       0.030700
     11 C6           2.7910     0.3340    -0.1930 c          1 6YK       0.663100
     12 O1           3.3350     0.8590     0.7700 o          1 6YK      -0.625100
     13 C3           1.4980    -1.9350    -0.1080 c3         1 6YK      -0.063700
     14 C2           1.0400    -1.9960     1.3520 c3         1 6YK      -0.072400
     15 C4           1.6160    -3.3500    -0.6700 c3         1 6YK      -0.090100
     16 C1           0.5210    -0.6940     1.9440 c3         1 6YK      -0.102100
     17 N1           2.1800     1.0500    -1.1630 n          1 6YK      -0.470800
     18 C7           1.4910     0.4630    -2.2990 c3         1 6YK       0.078300
     19 C8           2.2230     2.5140    -1.1160 c3         1 6YK       0.104700
     20 C29          3.0190     3.1140    -2.2920 c3         1 6YK      -0.069700
     21 C30          3.3480     4.5770    -2.0040 c3         1 6YK      -0.088100
     22 C31          4.3090     2.3400    -2.5440 c3         1 6YK      -0.088100
     23 C9           0.7990     3.0660    -1.0140 c3         1 6YK      -0.084400
     24 C10          0.2100     2.8540     0.3740 c3         1 6YK       0.117800
     25 O5           0.8350     3.8060     1.2340 os         1 6YK      -0.430900
     26 C27          0.7460     3.6120     2.5540 c          1 6YK       0.640100
     27 O6           0.1430     2.6910     3.0410 o          1 6YK      -0.508000
     28 C28          1.4590     4.6750     3.3310 c3         1 6YK      -0.154100
     29 C11         -1.2730     3.0300     0.3890 cc         1 6YK       0.396700
     30 N2          -2.1070     2.0520     0.3110 nd         1 6YK      -0.619000
     31 C12         -3.3960     2.4990     0.2570 cd         1 6YK       0.298800
     32 C14         -4.5270     1.5390     0.1640 c          1 6YK       0.593600
     33 O2          -5.6780     1.9340     0.0260 o          1 6YK      -0.612100
     34 C13         -3.5430     3.8500     0.3010 cc         1 6YK      -0.138400
     35 S1          -2.0100     4.5940     0.4070 ss         1 6YK      -0.183300
     36 N3          -4.1640     0.2560     0.2390 ns         1 6YK      -0.541900
     37 C20         -1.6980    -1.2550    -3.7760 ca         1 6YK       0.122600
     38 C21         -3.0420    -0.8660    -3.8100 ca         1 6YK      -0.197000
     39 C18         -2.1020    -2.1850    -1.5800 ca         1 6YK      -0.088500
     40 C16         -4.3440    -2.0760    -0.4360 c3         1 6YK      -0.050100
     41 C19         -1.2480    -1.9380    -2.6440 ca         1 6YK      -0.197000
     42 C26         -7.4440    -2.5560     2.7810 c          1 6YK       0.930600
     43 C15         -5.0930    -0.8520     0.1000 c3         1 6YK       0.113700
     44 C17         -3.4370    -1.7960    -1.6030 ca         1 6YK      -0.098300
     45 C22         -3.8860    -1.1370    -2.7470 ca         1 6YK      -0.088500
     46 C23         -5.7860    -1.1470     1.4330 c3         1 6YK      -0.067400
     47 C24         -6.8240    -2.2650     1.3910 c3         1 6YK      -0.193700
     48 C25         -7.9230    -1.9930     0.3640 c3         1 6YK      -0.064100
     49 H1           9.1330    -1.9390    -0.3780 h1         1 6YK       0.039700
     50 H2           7.7980    -2.5130    -1.3800 h1         1 6YK       0.039700
     51 H3           8.5460    -4.5770    -0.3150 hc         1 6YK       0.046700
     52 H4           8.8470    -3.7410     1.2070 hc         1 6YK       0.046700
     53 H5           6.4640    -0.3120    -0.9420 h1         1 6YK       0.034367
     54 H6           6.2500     0.1460     0.7530 h1         1 6YK       0.034367
     55 H7           7.8380     0.2520     0.0110 h1         1 6YK       0.034367
     56 H8           6.1880    -4.5310     0.0030 hc         1 6YK       0.056200
     57 H9           6.6500    -4.5550     1.6920 hc         1 6YK       0.056200
     58 H57          5.6110    -1.2110     2.5880 hc         1 6YK       0.045700
     59 H58          5.0060    -2.8670     2.7750 hc         1 6YK       0.045700
     60 H59          6.7130    -2.5050     3.0120 hc         1 6YK       0.045700
     61 H22          3.9330    -1.3430     1.4170 hn         1 6YK       0.334500
     62 H33          3.1330    -1.4050    -1.3820 h1         1 6YK       0.086700
     63 H32          0.7190    -1.4140    -0.6740 hc         1 6YK       0.061700
     64 H30          0.2320    -2.7330     1.4000 hc         1 6YK       0.039200
     65 H31          1.8430    -2.4040     1.9730 hc         1 6YK       0.039200
     66 H11          2.3510    -3.9350    -0.1160 hc         1 6YK       0.037700
     67 H12          0.6610    -3.8730    -0.5990 hc         1 6YK       0.037700
     68 H13          1.9170    -3.3440    -1.7200 hc         1 6YK       0.037700
     69 H27          0.0790    -0.8680     2.9250 hc         1 6YK       0.044367
     70 H28          1.3040     0.0510     2.0760 hc         1 6YK       0.044367
     71 H29         -0.2560    -0.2590     1.3110 hc         1 6YK       0.044367
     72 H14          0.4280     0.3050    -2.1030 h1         1 6YK       0.048367
     73 H15          1.5710     1.1230    -3.1590 h1         1 6YK       0.048367
     74 H16          1.9260    -0.4870    -2.5940 h1         1 6YK       0.048367
     75 H21          2.7630     2.7770    -0.2060 h1         1 6YK       0.093700
     76 H49          2.4070     3.0810    -3.2010 hc         1 6YK       0.046700
     77 H50          3.9900     4.6620    -1.1240 hc         1 6YK       0.035533
     78 H51          3.8820     5.0190    -2.8450 hc         1 6YK       0.035533
     79 H52          2.4620     5.1870    -1.8310 hc         1 6YK       0.035533
     80 H53          4.1310     1.3050    -2.8370 hc         1 6YK       0.035533
     81 H54          4.8820     2.8100    -3.3450 hc         1 6YK       0.035533
     82 H55          4.9370     2.3290    -1.6510 hc         1 6YK       0.035533
     83 H17          0.7730     4.1310    -1.2520 hc         1 6YK       0.066700
     84 H18          0.1500     2.5840    -1.7490 hc         1 6YK       0.066700
     85 H34          0.4100     1.8360     0.7170 h1         1 6YK       0.101700
     86 H46          2.0700     5.3190     2.7040 hc         1 6YK       0.067700
     87 H47          0.7220     5.2910     3.8490 hc         1 6YK       0.067700
     88 H48          2.0840     4.2110     4.0930 hc         1 6YK       0.067700
     89 H19         -4.4540     4.4270     0.2880 h4         1 6YK       0.197000
     90 H10         -3.1760     0.0610     0.3200 hn         1 6YK       0.329500
     91 H20         -3.4280    -0.3450    -4.6790 ha         1 6YK       0.121500
     92 H23         -1.7110    -2.7020    -0.7100 ha         1 6YK       0.134000
     93 H24         -3.7580    -2.5200     0.3760 hc         1 6YK       0.064200
     94 H25         -5.0900    -2.8280    -0.7050 hc         1 6YK       0.064200
     95 H26         -0.2200    -2.2760    -2.5970 ha         1 6YK       0.121500
     96 H35         -5.8420    -0.5480    -0.6350 h1         1 6YK       0.060700
     97 H36         -4.9210    -0.8220    -2.8170 ha         1 6YK       0.134000
     98 H37         -0.0210    -1.5180    -4.8860 hn         1 6YK       0.381300
     99 H38         -1.2620    -0.7660    -5.6970 hn         1 6YK       0.381300
    100 H39         -5.0120    -1.3890     2.1670 hc         1 6YK       0.057700
    101 H40         -6.2640    -0.2280     1.7810 hc         1 6YK       0.057700
    102 H41         -6.3260    -3.1960     1.0920 hc         1 6YK       0.019700
    103 H42         -8.4320    -1.0480     0.5720 hc         1 6YK       0.014700
    104 H43         -7.5330    -1.9340    -0.6540 hc         1 6YK       0.014700
    105 H44         -8.6690    -2.7860     0.3780 hc         1 6YK       0.014700
    106 C37          6.9280    -0.3480     0.0550 c3         1 6YK       0.168100
    107 N4          -0.8300    -0.9250    -4.8000 nv         1 6YK      -0.828200
    108 O3          -7.0110    -1.9200     3.7630 o          1 6YK      -0.839800
    109 O4          -8.3330    -3.4330     2.8110 o          1 6YK      -0.839800
@<TRIPOS>BOND
     1     1     2 1   
     2     1     7 1   
     3     1    49 1   
     4     1    50 1   
     5     2     4 1   
     6     2    51 1   
     7     2    52 1   
     8     3     4 1   
     9     3     5 1   
    10     3     7 1   
    11     3     8 1   
    12     4    56 1   
    13     4    57 1   
    14     5     6 2   
    15     5     9 1   
    16     7   106 1   
    17     8    58 1   
    18     8    59 1   
    19     8    60 1   
    20     9    10 1   
    21     9    61 1   
    22    10    11 1   
    23    10    13 1   
    24    10    62 1   
    25    11    12 2   
    26    11    17 1   
    27    13    14 1   
    28    13    15 1   
    29    13    63 1   
    30    14    16 1   
    31    14    64 1   
    32    14    65 1   
    33    15    66 1   
    34    15    67 1   
    35    15    68 1   
    36    16    69 1   
    37    16    70 1   
    38    16    71 1   
    39    17    18 1   
    40    17    19 1   
    41    18    72 1   
    42    18    73 1   
    43    18    74 1   
    44    19    20 1   
    45    19    23 1   
    46    19    75 1   
    47    20    21 1   
    48    20    22 1   
    49    20    76 1   
    50    21    77 1   
    51    21    78 1   
    52    21    79 1   
    53    22    80 1   
    54    22    81 1   
    55    22    82 1   
    56    23    24 1   
    57    23    83 1   
    58    23    84 1   
    59    24    25 1   
    60    24    29 1   
    61    24    85 1   
    62    25    26 1   
    63    26    27 2   
    64    26    28 1   
    65    28    86 1   
    66    28    87 1   
    67    28    88 1   
    68    29    30 2   
    69    29    35 1   
    70    30    31 1   
    71    31    32 1   
    72    31    34 2   
    73    32    33 2   
    74    32    36 1   
    75    34    35 1   
    76    34    89 1   
    77    36    43 1   
    78    36    90 1   
    79    37    38 ar  
    80    37    41 ar  
    81    37   107 1   
    82    38    45 ar  
    83    38    91 1   
    84    39    41 ar  
    85    39    44 ar  
    86    39    92 1   
    87    40    43 1   
    88    40    44 1   
    89    40    93 1   
    90    40    94 1   
    91    41    95 1   
    92    42    47 1   
    93    42   108 1   
    94    42   109 1   
    95    43    46 1   
    96    43    96 1   
    97    44    45 ar  
    98    45    97 1   
    99    46    47 1   
   100    46   100 1   
   101    46   101 1   
   102    47    48 1   
   103    47   102 1   
   104    48   103 1   
   105    48   104 1   
   106    48   105 1   
   107    53   106 1   
   108    54   106 1   
   109    55   106 1   
   110    98   107 1   
   111    99   107 1   
@<TRIPOS>SUBSTRUCTURE
     1 6YK         1 TEMP              0 ****  ****    0 ROOT
