@<TRIPOS>MOLECULE
6YL
   53    55     1     0     0
SMALL
abcg2


@<TRIPOS>ATOM
      1 C11         34.4250    46.3890     8.6550 ca         1 6YL      -0.066000
      2 C12         34.4880    46.4150    10.0410 ca         1 6YL      -0.145000
      3 C6          29.9240    45.3620     8.1970 ca         1 6YL      -0.121000
      4 C14         32.9700    44.5250    10.1110 ca         1 6YL      -0.124000
      5 C4          27.9790    46.0020     9.4100 ca         1 6YL       0.346900
      6 C27         29.9780    48.0700     6.9310 cc         1 6YL      -0.141000
      7 C5          28.9180    46.3220     8.4370 ca         1 6YL      -0.038000
      8 C23         28.9200    47.5840     7.6920 cd         1 6YL      -0.155000
      9 C10         33.6360    45.4510     7.9900 ca         1 6YL      -0.152600
     10 C9          32.9000    44.5130     8.7190 ca         1 6YL      -0.060300
     11 C1          29.9430    44.1890     8.9110 ca         1 6YL       0.021100
     12 C13         33.7520    45.4730    10.7370 ca         1 6YL       0.181000
     13 C24         27.9040    48.5720     7.5430 cd         1 6YL       0.274300
     14 C2          28.9340    43.9570     9.8790 ca         1 6YL       0.563900
     15 C17         33.5140    45.5450     6.4930 c          1 6YL       0.614700
     16 C28         26.5220    48.6170     8.1040 c3         1 6YL      -0.121400
     17 C15         32.7970    42.1240     7.9270 c3         1 6YL      -0.087100
     18 C21         34.4760    45.1810     4.2940 c3         1 6YL       0.083300
     19 C22         35.6750    44.3470     6.2710 c3         1 6YL       0.083300
     20 C8          32.0640    43.4510     8.0310 c3         1 6YL       0.215600
     21 N3          27.9810    44.8510    10.1020 nb         1 6YL      -0.721000
     22 N25         28.3270    49.5650     6.7560 nc         1 6YL      -0.539800
     23 N26         29.5860    49.2420     6.3970 na         1 6YL       0.121800
     24 N18         28.9660    42.8110    10.6430 nv         1 6YL      -1.044900
     25 N20         34.5190    45.0590     5.7450 n          1 6YL      -0.402800
     26 O19         32.5120    46.0870     6.0070 o          1 6YL      -0.624100
     27 O7          30.8620    43.1870     8.7750 os         1 6YL      -0.362100
     28 F16         33.7990    45.4810    12.0930 f          1 6YL      -0.175000
     29 H1          34.9930    47.1110     8.0820 ha         1 6YL       0.123000
     30 H2          35.0870    47.1430    10.5700 ha         1 6YL       0.138000
     31 H3          30.6790    45.5570     7.4490 ha         1 6YL       0.140000
     32 H4          32.4090    43.8120    10.7000 ha         1 6YL       0.154000
     33 H5          27.1890    46.6930     9.6660 h4         1 6YL       0.021100
     34 H6          30.9560    47.6600     6.7340 h4         1 6YL       0.176000
     35 H7          25.9630    49.4300     7.6420 hc         1 6YL       0.048033
     36 H8          25.9880    47.6810     7.9240 hc         1 6YL       0.048033
     37 H9          26.5300    48.7820     9.1850 hc         1 6YL       0.048033
     38 H10         32.1680    41.3880     7.4270 hc         1 6YL       0.050033
     39 H11         33.7120    42.2540     7.3480 hc         1 6YL       0.050033
     40 H12         33.0610    41.7570     8.9200 hc         1 6YL       0.050033
     41 H13         30.5140    51.0820     6.0310 h1         1 6YL       0.054367
     42 H14         31.3130    49.6550     5.3350 h1         1 6YL       0.054367
     43 H15         29.8210    50.2830     4.6010 h1         1 6YL       0.054367
     44 H16         33.6840    45.8670     4.0100 h1         1 6YL       0.047533
     45 H17         35.4360    45.5580     3.9370 h1         1 6YL       0.047533
     46 H18         34.2920    44.2050     3.8380 h1         1 6YL       0.047533
     47 H19         35.5810    44.1970     7.3410 h1         1 6YL       0.047533
     48 H20         35.7530    43.3740     5.7830 h1         1 6YL       0.047533
     49 H21         36.5870    44.9130     6.0680 h1         1 6YL       0.047533
     50 H22         31.7890    43.7890     7.0310 h1         1 6YL       0.065700
     51 H23         28.0910    42.5730    11.0870 hn         1 6YL       0.466500
     52 H24         29.4600    42.0260    10.2480 hn         1 6YL       0.466500
     53 C29         30.3520    50.1220     5.5390 c3         1 6YL       0.078900
@<TRIPOS>BOND
     1     1     2 ar  
     2     1     9 ar  
     3     1    29 1   
     4     2    12 ar  
     5     2    30 1   
     6     3     7 ar  
     7     3    11 ar  
     8     3    31 1   
     9     4    10 ar  
    10     4    12 ar  
    11     4    32 1   
    12     5     7 ar  
    13     5    21 ar  
    14     5    33 1   
    15     6     8 2   
    16     6    23 1   
    17     6    34 1   
    18     7     8 1   
    19     8    13 1   
    20     9    10 ar  
    21     9    15 1   
    22    10    20 1   
    23    11    14 ar  
    24    11    27 1   
    25    12    28 1   
    26    13    16 1   
    27    13    22 2   
    28    14    21 ar  
    29    14    24 1   
    30    15    25 1   
    31    15    26 2   
    32    16    35 1   
    33    16    36 1   
    34    16    37 1   
    35    17    20 1   
    36    17    38 1   
    37    17    39 1   
    38    17    40 1   
    39    18    25 1   
    40    18    44 1   
    41    18    45 1   
    42    18    46 1   
    43    19    25 1   
    44    19    47 1   
    45    19    48 1   
    46    19    49 1   
    47    20    27 1   
    48    20    50 1   
    49    22    23 1   
    50    23    53 1   
    51    24    51 1   
    52    24    52 1   
    53    41    53 1   
    54    42    53 1   
    55    43    53 1   
@<TRIPOS>SUBSTRUCTURE
     1 6YL         1 TEMP              0 ****  ****    0 ROOT
