@<TRIPOS>MOLECULE
6YL
   53    55     1     0     0
SMALL
No Charge or Current Charge


@<TRIPOS>ATOM
      1 C11         34.5010    46.2540     8.4720 ca         1 6YL      -0.066000
      2 C12         34.5820    46.3370     9.8700 ca         1 6YL      -0.145000
      3 C6          29.8340    45.3680     8.2900 ca         1 6YL      -0.121000
      4 C14         32.9780    44.5250    10.0640 ca         1 6YL      -0.124000
      5 C4          27.8260    46.0150     9.4780 ca         1 6YL       0.346900
      6 C27         29.8630    47.9880     6.9080 cc         1 6YL      -0.141000
      7 C5          28.8200    46.3290     8.5110 ca         1 6YL      -0.038000
      8 C23         28.8440    47.6080     7.7460 cd         1 6YL      -0.155000
      9 C10         33.6560    45.3060     7.8500 ca         1 6YL      -0.152600
     10 C9          32.8690    44.4340     8.6570 ca         1 6YL      -0.060300
     11 C1          29.8160    44.1640     9.0250 ca         1 6YL       0.021100
     12 C13         33.8220    45.4700    10.6610 ca         1 6YL       0.181000
     13 C24         27.8700    48.6510     7.6550 cd         1 6YL       0.274300
     14 C2          28.7600    43.9830     9.9540 ca         1 6YL       0.563900
     15 C17         33.6090    45.2710     6.3380 c          1 6YL       0.614700
     16 C28         26.5200    48.7520     8.3160 c3         1 6YL      -0.121400
     17 C15         32.6730    41.9870     7.9970 c3         1 6YL      -0.087100
     18 C21         34.8600    45.2930     4.1670 c3         1 6YL       0.083300
     19 C22         36.0490    44.6360     6.2940 c3         1 6YL       0.083300
     20 C8          31.9590    43.3490     8.0490 c3         1 6YL       0.215600
     21 N3          27.7910    44.8610    10.1860 nb         1 6YL      -0.721000
     22 N25         28.2390    49.6290     6.8500 nc         1 6YL      -0.539800
     23 N26         29.4670    49.2150     6.3980 na         1 6YL       0.121800
     24 N18         28.6000    42.8890    10.7210 nv         1 6YL      -1.044900
     25 N20         34.8360    45.1830     5.6430 n          1 6YL      -0.402800
     26 O19         32.5550    45.4210     5.7320 o          1 6YL      -0.624100
     27 O7          30.7780    43.1710     8.8610 os         1 6YL      -0.362100
     28 F16         33.9040    45.5410    12.0070 f          1 6YL      -0.175000
     29 H1          35.0890    46.9410     7.8660 ha         1 6YL       0.123000
     30 H2          35.2330    47.0700    10.3400 ha         1 6YL       0.138000
     31 H3          30.6080    45.5520     7.5570 ha         1 6YL       0.140000
     32 H4          32.4080    43.8570    10.7050 ha         1 6YL       0.154000
     33 H5          27.0300    46.7080     9.7230 h4         1 6YL       0.021100
     34 H6          30.8040    47.5250     6.6380 h4         1 6YL       0.176000
     35 H7          25.9470    49.6060     7.9350 hc         1 6YL       0.048033
     36 H8          25.9210    47.8550     8.1280 hc         1 6YL       0.048033
     37 H9          26.6220    48.8900     9.3990 hc         1 6YL       0.048033
     38 H10         32.0140    41.2240     7.5670 hc         1 6YL       0.050033
     39 H11         33.5730    42.0530     7.3750 hc         1 6YL       0.050033
     40 H12         32.9710    41.6650     9.0020 hc         1 6YL       0.050033
     41 H13         30.4270    51.0270     5.9100 h1         1 6YL       0.054367
     42 H14         31.1740    49.5630     5.2050 h1         1 6YL       0.054367
     43 H15         29.6390    50.1910     4.5370 h1         1 6YL       0.054367
     44 H16         34.2760    46.1660     3.8470 h1         1 6YL       0.047533
     45 H17         35.8910    45.4120     3.8110 h1         1 6YL       0.047533
     46 H18         34.4280    44.3870     3.7220 h1         1 6YL       0.047533
     47 H19         35.7740    43.9200     7.0790 h1         1 6YL       0.047533
     48 H20         36.6750    44.1150     5.5580 h1         1 6YL       0.047533
     49 H21         36.6330    45.4530     6.7370 h1         1 6YL       0.047533
     50 H22         31.6590    43.6040     7.0270 h1         1 6YL       0.065700
     51 H23         27.6790    42.7650    11.1230 hn         1 6YL       0.466500
     52 H24         29.1020    42.0540    10.4400 hn         1 6YL       0.466500
     53 C29         30.2240    50.0510     5.4540 c3         1 6YL       0.078900
@<TRIPOS>BOND
     1     1     2 ar  
     2     1     9 ar  
     3     1    29 1   
     4     2    12 ar  
     5     2    30 1   
     6     3     7 ar  
     7     3    11 ar  
     8     3    31 1   
     9     4    10 ar  
    10     4    12 ar  
    11     4    32 1   
    12     5     7 ar  
    13     5    21 ar  
    14     5    33 1   
    15     6     8 2   
    16     6    23 1   
    17     6    34 1   
    18     7     8 1   
    19     8    13 1   
    20     9    10 ar  
    21     9    15 1   
    22    10    20 1   
    23    11    14 ar  
    24    11    27 1   
    25    12    28 1   
    26    13    16 1   
    27    13    22 2   
    28    14    21 ar  
    29    14    24 1   
    30    15    25 1   
    31    15    26 2   
    32    16    35 1   
    33    16    36 1   
    34    16    37 1   
    35    17    20 1   
    36    17    38 1   
    37    17    39 1   
    38    17    40 1   
    39    18    25 1   
    40    18    44 1   
    41    18    45 1   
    42    18    46 1   
    43    19    25 1   
    44    19    47 1   
    45    19    48 1   
    46    19    49 1   
    47    20    27 1   
    48    20    50 1   
    49    22    23 1   
    50    23    53 1   
    51    24    51 1   
    52    24    52 1   
    53    41    53 1   
    54    42    53 1   
    55    43    53 1   
@<TRIPOS>SUBSTRUCTURE
     1 6YL         1 TEMP              0 ****  ****    0 ROOT
