@<TRIPOS>MOLECULE
6YN
   52    56     1     0     0
SMALL
No Charge or Current Charge


@<TRIPOS>ATOM
      1 F1           1.3940     1.8000    -1.2210 f          1 6YN      -0.162500
      2 C12          2.4200     2.0100    -0.3650 ca         1 6YN       0.222500
      3 C11          2.8850     3.3290    -0.2360 ca         1 6YN      -0.174500
      4 C2           3.9820     3.6210     0.5830 ca         1 6YN      -0.045000
      5 C1           4.6060     2.5820     1.2830 ca         1 6YN      -0.174500
      6 C10          4.1500     1.2600     1.1570 ca         1 6YN       0.222500
      7 F2           4.7350     0.3290     1.9410 f          1 6YN      -0.162500
      8 C3           3.0580     0.9340     0.3110 ca         1 6YN      -0.240500
      9 C4           2.5420    -0.4490     0.2110 cc         1 6YN       0.399500
     10 C7           3.4730    -1.5710     0.2810 cc         1 6YN      -0.178000
     11 C6           3.0240    -2.8720     0.2720 cd         1 6YN       0.005000
     12 N1           1.2030    -0.5650     0.1580 nd         1 6YN      -0.462800
     13 N2           0.7900    -1.8890     0.1340 na         1 6YN       0.109000
     14 C5           1.6140    -2.9600     0.1980 cd         1 6YN      -0.218000
     15 C9           0.7890    -4.0620     0.1740 cc         1 6YN      -0.003400
     16 N3          -0.5420    -3.6590     0.1040 nc         1 6YN      -0.611300
     17 C8          -0.5200    -2.3320     0.0830 cd         1 6YN       0.641700
     18 N4          -1.6140    -1.5290     0.0200 nu         1 6YN      -0.888200
     19 C13         -3.0130    -1.7100    -0.0290 ca         1 6YN       0.267000
     20 C17         -3.6720    -2.9680    -0.0600 ca         1 6YN       0.306900
     21 N5          -5.0240    -3.1100    -0.1280 nb         1 6YN      -0.649000
     22 C16         -5.7720    -1.9850    -0.1690 ca         1 6YN       0.311900
     23 C15         -5.2180    -0.6970    -0.1430 ca         1 6YN      -0.174000
     24 C14         -3.8250    -0.5460    -0.0680 ca         1 6YN       0.233000
     25 N6          -3.2380     0.7520    -0.0310 nh         1 6YN      -0.800400
     26 C22         -3.6410     1.7950    -1.0210 c6         1 6YN       0.184800
     27 C18         -2.7860     1.3150     1.2710 c6         1 6YN       0.190800
     28 C19         -1.6100     2.3000     1.0600 c6         1 6YN      -0.077400
     29 C20         -1.9840     3.4230     0.0590 c6         1 6YN      -0.078400
     30 C21         -2.4810     2.8170    -1.2780 c6         1 6YN       0.159500
     31 N7          -2.8720     3.9000    -2.2170 n8         1 6YN      -1.005200
     32 H1           2.3910     4.1270    -0.7850 ha         1 6YN       0.143000
     33 H2           4.3370     4.6450     0.6840 ha         1 6YN       0.127000
     34 H3           5.4400     2.8000     1.9450 ha         1 6YN       0.143000
     35 H4           4.5380    -1.3820     0.3020 ha         1 6YN       0.136000
     36 H5           3.6830    -3.7350     0.3140 ha         1 6YN       0.136000
     37 H6           1.0640    -5.1170     0.2070 h4         1 6YN       0.234000
     38 H7          -1.3570    -0.5420    -0.0070 hn         1 6YN       0.537000
     39 H8          -3.1070    -3.8960    -0.0360 h4         1 6YN       0.054100
     40 H9          -6.8510    -2.1230    -0.2230 h4         1 6YN       0.018100
     41 H10         -5.8690     0.1700    -0.1710 ha         1 6YN       0.122000
     42 H11         -3.9140     1.3220    -1.9760 h1         1 6YN       0.051700
     43 H12         -4.5270     2.3350    -0.6560 h1         1 6YN       0.051700
     44 H13         -3.6190     1.8390     1.7620 h1         1 6YN       0.038700
     45 H14         -2.4610     0.5100     1.9470 h1         1 6YN       0.038700
     46 H15         -1.3180     2.7390     2.0240 hc         1 6YN       0.048700
     47 H16         -0.7330     1.7520     0.6900 hc         1 6YN       0.048700
     48 H17         -2.7670     4.0570     0.4980 hc         1 6YN       0.046700
     49 H18         -1.1120     4.0680    -0.1150 hc         1 6YN       0.046700
     50 H19         -1.6430     2.2760    -1.7430 h1         1 6YN       0.031700
     51 H20         -2.0580     4.5060    -2.3730 hn         1 6YN       0.398500
     52 H21         -3.0410     3.4890    -3.1430 hn         1 6YN       0.398500
@<TRIPOS>BOND
     1     1     2 1   
     2     2     3 ar  
     3     2     8 ar  
     4     3     4 ar  
     5     3    32 1   
     6     4     5 ar  
     7     4    33 1   
     8     5     6 ar  
     9     5    34 1   
    10     6     7 1   
    11     6     8 ar  
    12     8     9 1   
    13     9    10 1   
    14     9    12 2   
    15    10    11 2   
    16    10    35 1   
    17    11    14 1   
    18    11    36 1   
    19    12    13 1   
    20    13    14 1   
    21    13    17 1   
    22    14    15 2   
    23    15    16 1   
    24    15    37 1   
    25    16    17 2   
    26    17    18 1   
    27    18    19 1   
    28    18    38 1   
    29    19    20 ar  
    30    19    24 ar  
    31    20    21 ar  
    32    20    39 1   
    33    21    22 ar  
    34    22    23 ar  
    35    22    40 1   
    36    23    24 ar  
    37    23    41 1   
    38    24    25 1   
    39    25    26 1   
    40    25    27 1   
    41    26    30 1   
    42    26    42 1   
    43    26    43 1   
    44    27    28 1   
    45    27    44 1   
    46    27    45 1   
    47    28    29 1   
    48    28    46 1   
    49    28    47 1   
    50    29    30 1   
    51    29    48 1   
    52    29    49 1   
    53    30    31 1   
    54    30    50 1   
    55    31    51 1   
    56    31    52 1   
@<TRIPOS>SUBSTRUCTURE
     1 6YN         1 TEMP              0 ****  ****    0 ROOT
