@<TRIPOS>MOLECULE
6YN
   52    56     1     0     0
SMALL
abcg2


@<TRIPOS>ATOM
      1 F1           1.8870     1.4170    -2.1150 f          1 6YN      -0.162500
      2 C12          2.5340     1.8760    -1.0390 ca         1 6YN       0.222500
      3 C11          2.9080     3.2040    -0.9940 ca         1 6YN      -0.174500
      4 C2           3.6060     3.6520     0.1180 ca         1 6YN      -0.045000
      5 C1           3.9250     2.7930     1.1600 ca         1 6YN      -0.174500
      6 C10          3.5250     1.4760     1.0650 ca         1 6YN       0.222500
      7 F2           3.8110     0.6270     2.0580 f          1 6YN      -0.162500
      8 C3           2.8170     0.9790    -0.0190 ca         1 6YN      -0.240500
      9 C4           2.3810    -0.4320    -0.0860 cc         1 6YN       0.399500
     10 C7           3.3460    -1.4810    -0.2610 cc         1 6YN      -0.178000
     11 C6           2.9210    -2.7650    -0.3780 cd         1 6YN       0.005000
     12 N1           1.1070    -0.6300    -0.0060 nd         1 6YN      -0.462800
     13 N2           0.7180    -1.9040    -0.1120 na         1 6YN       0.109000
     14 C5           1.5360    -3.0190    -0.3130 cd         1 6YN      -0.218000
     15 C9           0.6610    -4.0720    -0.3930 cc         1 6YN      -0.003400
     16 N3          -0.6200    -3.6360    -0.2390 nc         1 6YN      -0.611300
     17 C8          -0.5640    -2.3350    -0.0720 cd         1 6YN       0.641700
     18 N4          -1.5630    -1.4330     0.1170 nu         1 6YN      -0.888200
     19 C13         -2.9280    -1.6220     0.0780 ca         1 6YN       0.267000
     20 C17         -3.5620    -2.8500    -0.0970 ca         1 6YN       0.306900
     21 N5          -4.8850    -2.9940    -0.0790 nb         1 6YN      -0.649000
     22 C16         -5.6330    -1.9230     0.1270 ca         1 6YN       0.311900
     23 C15         -5.1040    -0.6500     0.2990 ca         1 6YN      -0.174000
     24 C14         -3.7300    -0.4730     0.2590 ca         1 6YN       0.233000
     25 N6          -3.0890     0.7590     0.4310 nh         1 6YN      -0.800400
     26 C22         -2.5590     1.3600    -0.7940 c6         1 6YN       0.184800
     27 C18         -3.7630     1.7390     1.2700 c6         1 6YN       0.190800
     28 C19         -2.7760     2.8220     1.6770 c6         1 6YN      -0.077400
     29 C20         -2.1350     3.4690     0.4560 c6         1 6YN      -0.078400
     30 C21         -1.5150     2.4190    -0.4570 c6         1 6YN       0.159500
     31 N7          -1.0640     3.0360    -1.6940 n8         1 6YN      -1.005200
     32 H1           2.6680     3.8690    -1.8120 ha         1 6YN       0.143000
     33 H2           3.9090     4.6880     0.1720 ha         1 6YN       0.127000
     34 H3           4.4680     3.1390     2.0290 ha         1 6YN       0.143000
     35 H4           4.3950    -1.2290    -0.3180 ha         1 6YN       0.136000
     36 H5           3.6130    -3.5830    -0.5240 ha         1 6YN       0.136000
     37 H6           0.8940    -5.1130    -0.5460 h4         1 6YN       0.234000
     38 H7          -1.2780    -0.5190     0.4480 hn         1 6YN       0.537000
     39 H8          -2.9730    -3.7460    -0.2390 h4         1 6YN       0.054100
     40 H9          -6.7070    -2.0700     0.1500 h4         1 6YN       0.018100
     41 H10         -5.7660     0.1920     0.4480 ha         1 6YN       0.122000
     42 H11         -2.1150     0.5830    -1.4210 h1         1 6YN       0.051700
     43 H12         -3.3680     1.8210    -1.3810 h1         1 6YN       0.051700
     44 H13         -4.6190     2.1950     0.7490 h1         1 6YN       0.038700
     45 H14         -4.1520     1.2330     2.1550 h1         1 6YN       0.038700
     46 H15         -3.2960     3.5720     2.2760 hc         1 6YN       0.048700
     47 H16         -2.0060     2.3780     2.3140 hc         1 6YN       0.048700
     48 H17         -2.8920     4.0190    -0.1150 hc         1 6YN       0.046700
     49 H18         -1.3770     4.1950     0.7620 hc         1 6YN       0.046700
     50 H19         -0.7020     1.9170     0.0930 h1         1 6YN       0.031700
     51 H20         -0.4170     3.7870    -1.4830 hn         1 6YN       0.398500
     52 H21         -0.5420     2.3650    -2.2440 hn         1 6YN       0.398500
@<TRIPOS>BOND
     1     1     2 1   
     2     2     3 ar  
     3     2     8 ar  
     4     3     4 ar  
     5     3    32 1   
     6     4     5 ar  
     7     4    33 1   
     8     5     6 ar  
     9     5    34 1   
    10     6     7 1   
    11     6     8 ar  
    12     8     9 1   
    13     9    10 1   
    14     9    12 2   
    15    10    11 2   
    16    10    35 1   
    17    11    14 1   
    18    11    36 1   
    19    12    13 1   
    20    13    14 1   
    21    13    17 1   
    22    14    15 2   
    23    15    16 1   
    24    15    37 1   
    25    16    17 2   
    26    17    18 1   
    27    18    19 1   
    28    18    38 1   
    29    19    20 ar  
    30    19    24 ar  
    31    20    21 ar  
    32    20    39 1   
    33    21    22 ar  
    34    22    23 ar  
    35    22    40 1   
    36    23    24 ar  
    37    23    41 1   
    38    24    25 1   
    39    25    26 1   
    40    25    27 1   
    41    26    30 1   
    42    26    42 1   
    43    26    43 1   
    44    27    28 1   
    45    27    44 1   
    46    27    45 1   
    47    28    29 1   
    48    28    46 1   
    49    28    47 1   
    50    29    30 1   
    51    29    48 1   
    52    29    49 1   
    53    30    31 1   
    54    30    50 1   
    55    31    51 1   
    56    31    52 1   
@<TRIPOS>SUBSTRUCTURE
     1 6YN         1 TEMP              0 ****  ****    0 ROOT
