@<TRIPOS>MOLECULE
6YP
   29    29     1     0     0
SMALL
abcg2


@<TRIPOS>ATOM
      1 C4          -1.4060     0.1570    -0.7430 ca         1 6YP      -0.018300
      2 C2          -3.7060    -0.0370     0.2420 c3         1 6YP      -0.074400
      3 C6           0.6050    -1.0900    -0.2320 ca         1 6YP      -0.006500
      4 C5          -0.7410    -1.0560    -0.5470 ca         1 6YP      -0.132000
      5 C8           0.6680     1.3260    -0.3040 ca         1 6YP      -0.006500
      6 O1           3.2490    -1.0020     1.2800 o          1 6YP      -0.545500
      7 O            3.4310     1.4120     0.6610 o          1 6YP      -0.545500
      8 N            3.6810    -0.4750    -1.1030 n8         1 6YP      -1.004100
      9 C7           1.3010     0.1080    -0.1130 ca         1 6YP      -0.277500
     10 C9          -0.6830     1.3390    -0.6200 ca         1 6YP      -0.132000
     11 C3          -2.8790     0.1740    -1.0290 c3         1 6YP      -0.042100
     12 C1          -5.2050    -0.0280    -0.0250 c3         1 6YP      -0.075400
     13 C           -6.0250    -0.2510     1.2380 c3         1 6YP      -0.089100
     14 H1          -3.4230    -0.9890     0.7020 hc         1 6YP       0.044700
     15 H2          -3.4580     0.7430     0.9690 hc         1 6YP       0.044700
     16 H3           1.1000    -2.0400    -0.0830 ha         1 6YP       0.136500
     17 H4          -1.2860    -1.9870    -0.6430 ha         1 6YP       0.118500
     18 H5           1.2090     2.2570    -0.2080 ha         1 6YP       0.136500
     19 H6           4.6190    -0.8370    -0.9600 hn         1 6YP       0.472500
     20 H7           3.6850     0.2320    -1.8300 hn         1 6YP       0.472500
     21 H8          -1.1800     2.2890    -0.7730 ha         1 6YP       0.118500
     22 H9          -3.1550     1.1270    -1.4880 hc         1 6YP       0.051200
     23 H10         -3.1220    -0.6090    -1.7520 hc         1 6YP       0.051200
     24 H11         -5.4860     0.9270    -0.4790 hc         1 6YP       0.037700
     25 H12         -5.4460    -0.7990    -0.7620 hc         1 6YP       0.037700
     26 H13         -5.7880    -1.2110     1.7010 hc         1 6YP       0.033367
     27 H14         -5.8300     0.5280     1.9780 hc         1 6YP       0.033367
     28 H15         -7.0950    -0.2420     1.0260 hc         1 6YP       0.033367
     29 S            3.0150     0.0600     0.3110 sy         1 6YP       1.126600
@<TRIPOS>BOND
     1     1     4 ar  
     2     1    10 ar  
     3     1    11 1   
     4     2    11 1   
     5     2    12 1   
     6     2    14 1   
     7     2    15 1   
     8     3     4 ar  
     9     3     9 ar  
    10     3    16 1   
    11     4    17 1   
    12     5     9 ar  
    13     5    10 ar  
    14     5    18 1   
    15     6    29 2   
    16     7    29 2   
    17     8    19 1   
    18     8    20 1   
    19     8    29 1   
    20     9    29 1   
    21    10    21 1   
    22    11    22 1   
    23    11    23 1   
    24    12    13 1   
    25    12    24 1   
    26    12    25 1   
    27    13    26 1   
    28    13    27 1   
    29    13    28 1   
@<TRIPOS>SUBSTRUCTURE
     1 6YP         1 TEMP              0 ****  ****    0 ROOT
