@<TRIPOS>MOLECULE
6YP
   29    29     1     0     0
SMALL
No Charge or Current Charge


@<TRIPOS>ATOM
      1 C4          -1.3620    -0.0120    -0.6920 ca         1 6YP      -0.018300
      2 C2          -3.7260    -0.0060     0.2460 c3         1 6YP      -0.074400
      3 C6           0.6820    -1.2740    -0.2570 ca         1 6YP      -0.006500
      4 C5          -0.6880    -1.2410    -0.5680 ca         1 6YP      -0.132000
      5 C8           0.7190     1.1630    -0.1870 ca         1 6YP      -0.006500
      6 O1           3.4970    -1.3870     0.9580 o          1 6YP      -0.545500
      7 O            3.5700     1.1790     0.8570 o          1 6YP      -0.545500
      8 N            3.8180    -0.1700    -1.1580 n8         1 6YP      -1.004100
      9 C7           1.3920    -0.0710    -0.0650 ca         1 6YP      -0.277500
     10 C9          -0.6520     1.1870    -0.4980 ca         1 6YP      -0.132000
     11 C3          -2.8480     0.0190    -1.0230 c3         1 6YP      -0.042100
     12 C1          -5.2390     0.0250    -0.0610 c3         1 6YP      -0.075400
     13 C           -6.1130    -0.0010     1.2070 c3         1 6YP      -0.089100
     14 H1          -3.4930    -0.9090     0.8240 hc         1 6YP       0.044700
     15 H2          -3.4680     0.8530     0.8780 hc         1 6YP       0.044700
     16 H3           1.1870    -2.2350    -0.1670 ha         1 6YP       0.136500
     17 H4          -1.2270    -2.1750    -0.7110 ha         1 6YP       0.118500
     18 H5           1.2480     2.1030    -0.0400 ha         1 6YP       0.136500
     19 H6           4.4720     0.6080    -1.1010 hn         1 6YP       0.472500
     20 H7           3.0700     0.1840    -1.7480 hn         1 6YP       0.472500
     21 H8          -1.1630     2.1430    -0.5870 ha         1 6YP       0.118500
     22 H9          -3.0840     0.9180    -1.6070 hc         1 6YP       0.051200
     23 H10         -3.1090    -0.8350    -1.6600 hc         1 6YP       0.051200
     24 H11         -5.4750     0.9280    -0.6380 hc         1 6YP       0.037700
     25 H12         -5.5010    -0.8340    -0.6920 hc         1 6YP       0.037700
     26 H13         -5.9260    -0.9110     1.7890 hc         1 6YP       0.033367
     27 H14         -5.9000     0.8670     1.8430 hc         1 6YP       0.033367
     28 H15         -7.1760     0.0230     0.9400 hc         1 6YP       0.033367
     29 S            3.1420    -0.1150     0.3300 sy         1 6YP       1.126600
@<TRIPOS>BOND
     1     1     4 ar  
     2     1    10 ar  
     3     1    11 1   
     4     2    11 1   
     5     2    12 1   
     6     2    14 1   
     7     2    15 1   
     8     3     4 ar  
     9     3     9 ar  
    10     3    16 1   
    11     4    17 1   
    12     5     9 ar  
    13     5    10 ar  
    14     5    18 1   
    15     6    29 2   
    16     7    29 2   
    17     8    19 1   
    18     8    20 1   
    19     8    29 1   
    20     9    29 1   
    21    10    21 1   
    22    11    22 1   
    23    11    23 1   
    24    12    13 1   
    25    12    24 1   
    26    12    25 1   
    27    13    26 1   
    28    13    27 1   
    29    13    28 1   
@<TRIPOS>SUBSTRUCTURE
     1 6YP         1 TEMP              0 ****  ****    0 ROOT
