@<TRIPOS>MOLECULE
6YQ
   35    37     1     0     0
SMALL
No Charge or Current Charge


@<TRIPOS>ATOM
      1 Cl1          3.5140    -2.2660    -0.7560 cl         1 6YQ      -0.149000
      2 C6           2.5400    -0.8310    -0.4230 ca         1 6YQ       0.202000
      3 C1           3.0730     0.3420     0.1570 ca         1 6YQ      -0.234500
      4 S7           4.8140     0.4880     0.5850 sy         1 6YQ       1.155600
      5 O9           5.0980     1.7950     1.1730 o          1 6YQ      -0.537500
      6 N10          4.9960    -0.5440     1.8340 n8         1 6YQ      -1.036100
      7 O8           5.6690    -0.0880    -0.4500 o          1 6YQ      -0.537500
      8 C5           1.1730    -0.8960    -0.7440 ca         1 6YQ      -0.076000
      9 C4           0.3050     0.1920    -0.4960 ca         1 6YQ      -0.119600
     10 C3           0.8480     1.3600     0.0880 ca         1 6YQ      -0.103000
     11 C2           2.2130     1.4320     0.4120 ca         1 6YQ      -0.023000
     12 C11         -1.1640     0.0830    -0.8580 c          1 6YQ       0.547700
     13 O12         -1.5800    -0.8910    -1.4760 o          1 6YQ      -0.468100
     14 C13         -2.1180     1.2210    -0.4380 c3         1 6YQ      -0.018400
     15 N14         -3.5550     0.9270    -0.6350 na         1 6YQ      -0.181600
     16 C18         -4.3700     0.2840     0.2560 ca         1 6YQ      -0.070200
     17 C20         -4.0840    -0.2080     1.5390 ca         1 6YQ      -0.114000
     18 C21         -5.1260    -0.8380     2.2500 ca         1 6YQ      -0.091000
     19 C22         -6.4090    -0.9610     1.6690 ca         1 6YQ      -0.134000
     20 C23         -6.6570    -0.4550     0.3740 ca         1 6YQ      -0.045000
     21 C19         -5.6070     0.1680    -0.3170 ca         1 6YQ       0.070400
     22 N17         -5.6420     0.7190    -1.5890 nc         1 6YQ      -0.563100
     23 C16         -4.3760     1.1630    -1.7520 cd         1 6YQ       0.425700
     24 H1           5.7320    -1.1390     1.4600 hn         1 6YQ       0.491000
     25 H2           5.5100     0.0490     2.4810 hn         1 6YQ       0.491000
     26 H3           0.7890    -1.8110    -1.1880 ha         1 6YQ       0.155000
     27 H4           0.2260     2.2280     0.2950 ha         1 6YQ       0.121000
     28 H5           2.5970     2.3470     0.8600 ha         1 6YQ       0.151000
     29 H6          -1.9400     1.4420     0.6200 h1         1 6YQ       0.081700
     30 H7          -1.8500     2.1120    -1.0190 h1         1 6YQ       0.081700
     31 H8          -3.0940    -0.1120     1.9780 ha         1 6YQ       0.113000
     32 H9          -4.9420    -1.2310     3.2470 ha         1 6YQ       0.112000
     33 H10         -7.2100    -1.4480     2.2210 ha         1 6YQ       0.114000
     34 H11         -7.6400    -0.5480    -0.0810 ha         1 6YQ       0.129000
     35 H12         -3.9890     1.6570    -2.6350 h5         1 6YQ       0.059800
@<TRIPOS>BOND
     1     1     2 1   
     2     2     3 ar  
     3     2     8 ar  
     4     3     4 1   
     5     3    11 ar  
     6     4     5 2   
     7     4     6 1   
     8     4     7 2   
     9     6    24 1   
    10     6    25 1   
    11     8     9 ar  
    12     8    26 1   
    13     9    10 ar  
    14     9    12 1   
    15    10    11 ar  
    16    10    27 1   
    17    11    28 1   
    18    12    13 2   
    19    12    14 1   
    20    14    15 1   
    21    14    29 1   
    22    14    30 1   
    23    15    16 1   
    24    15    23 1   
    25    16    17 ar  
    26    16    21 ar  
    27    17    18 ar  
    28    17    31 1   
    29    18    19 ar  
    30    18    32 1   
    31    19    20 ar  
    32    19    33 1   
    33    20    21 ar  
    34    20    34 1   
    35    21    22 1   
    36    22    23 2   
    37    23    35 1   
@<TRIPOS>SUBSTRUCTURE
     1 6YQ         1 TEMP              0 ****  ****    0 ROOT
