@<TRIPOS>MOLECULE
6YQ
   35    37     1     0     0
SMALL
bcc


@<TRIPOS>ATOM
      1 CL1          3.3500    -2.3350    -0.3940 cl         1 6YQ      -0.057400
      2 C6           2.4310    -0.8870    -0.2470 ca         1 6YQ       0.110400
      3 C1           3.0240     0.3320     0.0840 ca         1 6YQ      -0.234500
      4 S7           4.7860     0.4960     0.3170 sy         1 6YQ       1.297200
      5 O9           5.0300     1.8970     0.6140 o          1 6YQ      -0.608300
      6 N10          5.0470    -0.4460     1.6300 n8         1 6YQ      -0.925700
      7 O8           5.4610    -0.1180    -0.8110 o          1 6YQ      -0.608300
      8 C5           1.0670    -0.9580    -0.4550 ca         1 6YQ      -0.094000
      9 C4           0.2780     0.1820    -0.3280 ca         1 6YQ      -0.119600
     10 C3           0.8700     1.3940     0.0080 ca         1 6YQ      -0.121000
     11 C2           2.2380     1.4660     0.2070 ca         1 6YQ      -0.041000
     12 C11         -1.1870     0.0560    -0.5700 c          1 6YQ       0.547700
     13 O12         -1.6710    -0.9660    -0.9900 o          1 6YQ      -0.468100
     14 C13         -2.0550     1.2640    -0.2580 c3         1 6YQ      -0.047700
     15 N14         -3.4420     0.9940    -0.4780 na         1 6YQ      -0.152300
     16 C18         -4.2750     0.2620     0.3300 ca         1 6YQ      -0.070200
     17 C20         -4.0870    -0.3450     1.5660 ca         1 6YQ      -0.132000
     18 C21         -5.1780    -1.0040     2.1040 ca         1 6YQ      -0.109000
     19 C22         -6.4100    -1.0560     1.4340 ca         1 6YQ      -0.152000
     20 C23         -6.5860    -0.4500     0.2030 ca         1 6YQ      -0.063000
     21 C19         -5.4980     0.2180    -0.3570 ca         1 6YQ       0.070400
     22 N17         -5.3900     0.8930    -1.5520 nc         1 6YQ      -0.563100
     23 C16         -4.1650     1.3230    -1.5820 cd         1 6YQ       0.425700
     24 H1           5.8720    -1.0290     1.5520 hn         1 6YQ       0.435800
     25 H2           5.0040     0.0520     2.5110 hn         1 6YQ       0.435800
     26 H3           0.6160    -1.9060    -0.7140 ha         1 6YQ       0.173000
     27 H4           0.2870     2.2980     0.1140 ha         1 6YQ       0.139000
     28 H5           2.6880     2.4150     0.4630 ha         1 6YQ       0.169000
     29 H6          -1.8920     1.5820     0.7750 h1         1 6YQ       0.081700
     30 H7          -1.7520     2.1040    -0.8870 h1         1 6YQ       0.081700
     31 H8          -3.1390    -0.3190     2.0890 ha         1 6YQ       0.131000
     32 H9          -5.0780    -1.4950     3.0630 ha         1 6YQ       0.130000
     33 H10         -7.2360    -1.5840     1.8920 ha         1 6YQ       0.132000
     34 H11         -7.5380    -0.4900    -0.3110 ha         1 6YQ       0.147000
     35 H12         -3.7240     1.9010    -2.3820 h5         1 6YQ       0.059800
@<TRIPOS>BOND
     1     1     2 1   
     2     2     3 ar  
     3     2     8 ar  
     4     3     4 1   
     5     3    11 ar  
     6     4     5 2   
     7     4     6 1   
     8     4     7 2   
     9     6    24 1   
    10     6    25 1   
    11     8     9 ar  
    12     8    26 1   
    13     9    10 ar  
    14     9    12 1   
    15    10    11 ar  
    16    10    27 1   
    17    11    28 1   
    18    12    13 2   
    19    12    14 1   
    20    14    15 1   
    21    14    29 1   
    22    14    30 1   
    23    15    16 1   
    24    15    23 1   
    25    16    17 ar  
    26    16    21 ar  
    27    17    18 ar  
    28    17    31 1   
    29    18    19 ar  
    30    18    32 1   
    31    19    20 ar  
    32    19    33 1   
    33    20    21 ar  
    34    20    34 1   
    35    21    22 1   
    36    22    23 2   
    37    23    35 1   
@<TRIPOS>SUBSTRUCTURE
     1 6YQ         1 TEMP              0 ****  ****    0 ROOT
