@<TRIPOS>MOLECULE
6YR
   29    29     1     0     0
SMALL
abcg2


@<TRIPOS>ATOM
      1 O4           2.7060     0.6630     1.3160 oh         1 6YR      -0.690000
      2 C4           2.5160     0.7260    -0.0750 c6         1 6YR       0.109300
      3 C3           2.0670    -0.6520    -0.5640 c6         1 6YR       0.160300
      4 O3           2.9330    -1.6810    -0.1660 oh         1 6YR      -0.693000
      5 C2           0.6660    -0.9790    -0.0480 c6         1 6YR       0.154300
      6 O2           0.1730    -2.1520    -0.6410 os         1 6YR      -0.449000
      7 C7           0.1500    -3.2860     0.1950 c3         1 6YR       0.152900
      8 C5           1.4630     1.7600    -0.4760 c6         1 6YR       0.133300
      9 C6           1.7840     3.1610    -0.0030 c3         1 6YR      -0.091100
     10 O5           0.2000     1.3950     0.0640 os         1 6YR      -0.433000
     11 C1          -0.2640     0.1760    -0.4330 c6         1 6YR       0.355300
     12 SE          -2.0530    -0.1390     0.2850 ss         1 6YR      -0.496000
     13 C8          -2.8900     1.4250    -0.5290 c3         1 6YR       0.109900
     14 HO4          3.1760     1.4520     1.6010 ho         1 6YR       0.502000
     15 H4           3.4530     0.9870    -0.5930 h1         1 6YR       0.029700
     16 H3           2.0050    -0.5910    -1.6620 h1         1 6YR       0.037700
     17 H5           1.4070     1.7640    -1.5760 h1         1 6YR       0.037700
     18 HO3          3.7790    -1.5560    -0.6080 ho         1 6YR       0.502000
     19 H2           0.6960    -1.0690     1.0470 h1         1 6YR       0.090700
     20 H1          -0.3510     0.2150    -1.5320 h2         1 6YR       0.055700
     21 H71C         1.1520    -3.6140     0.4820 h1         1 6YR       0.035367
     22 H72C        -0.4300    -3.1120     1.1070 h1         1 6YR       0.035367
     23 H73C        -0.3300    -4.0910    -0.3620 h1         1 6YR       0.035367
     24 H61C         2.7530     3.4740    -0.3930 hc         1 6YR       0.047700
     25 H62C         1.0380     3.8710    -0.3590 hc         1 6YR       0.047700
     26 H63C         1.8150     3.2270     1.0860 hc         1 6YR       0.047700
     27 H81C        -2.4780     2.3460    -0.1220 h1         1 6YR       0.057033
     28 H82C        -2.7560     1.4100    -1.6100 h1         1 6YR       0.057033
     29 H83C        -3.9560     1.3860    -0.3080 h1         1 6YR       0.057033
@<TRIPOS>BOND
     1     1     2 1   
     2     1    14 1   
     3     2     3 1   
     4     2     8 1   
     5     2    15 1   
     6     3     4 1   
     7     3     5 1   
     8     3    16 1   
     9     4    18 1   
    10     5     6 1   
    11     5    11 1   
    12     5    19 1   
    13     6     7 1   
    14     7    21 1   
    15     7    22 1   
    16     7    23 1   
    17     8     9 1   
    18     8    10 1   
    19     8    17 1   
    20     9    24 1   
    21     9    25 1   
    22     9    26 1   
    23    10    11 1   
    24    11    12 1   
    25    11    20 1   
    26    12    13 1   
    27    13    27 1   
    28    13    28 1   
    29    13    29 1   
@<TRIPOS>SUBSTRUCTURE
     1 6YR         1 TEMP              0 ****  ****    0 ROOT
