@<TRIPOS>MOLECULE
6YR
   29    29     1     0     0
SMALL
No Charge or Current Charge


@<TRIPOS>ATOM
      1 O4           2.7380     0.6470     1.2860 oh         1 6YR      -0.690000
      2 C4           2.4920     0.6450    -0.1400 c6         1 6YR       0.109300
      3 C3           1.9650    -0.7610    -0.5520 c6         1 6YR       0.160300
      4 O3           2.9050    -1.7290    -0.0540 oh         1 6YR      -0.693000
      5 C2           0.5020    -1.0000    -0.0120 c6         1 6YR       0.154300
      6 O2          -0.0990    -2.2430    -0.4950 os         1 6YR      -0.449000
      7 C7           0.4440    -3.4950    -0.0350 c3         1 6YR       0.152900
      8 C5           1.4530     1.7260    -0.5750 c6         1 6YR       0.133300
      9 C6           1.8510     3.1710    -0.1830 c3         1 6YR      -0.091100
     10 O5           0.1790     1.4570     0.0350 os         1 6YR      -0.433000
     11 C1          -0.4110     0.2120    -0.3910 c6         1 6YR       0.355300
     12 SE          -2.1020     0.1280     0.3660 ss         1 6YR      -0.496000
     13 C8          -2.8650     1.6350    -0.3950 c3         1 6YR       0.109900
     14 HO4          2.8940     1.5820     1.5540 ho         1 6YR       0.502000
     15 H4           3.4320     0.8380    -0.6780 h1         1 6YR       0.029700
     16 H3           1.9310    -0.8080    -1.6500 h1         1 6YR       0.037700
     17 H5           1.3350     1.6930    -1.6690 h1         1 6YR       0.037700
     18 HO3          3.2550    -1.2980     0.7640 ho         1 6YR       0.502000
     19 H2           0.5390    -1.0400     1.0860 h1         1 6YR       0.090700
     20 H1          -0.5530     0.2290    -1.4820 h2         1 6YR       0.055700
     21 H71C         1.4090    -3.7100    -0.5080 h1         1 6YR       0.035367
     22 H72C         0.5740    -3.4920     1.0550 h1         1 6YR       0.035367
     23 H73C        -0.2370    -4.3170    -0.2920 h1         1 6YR       0.035367
     24 H61C         2.8410     3.4280    -0.5800 hc         1 6YR       0.047700
     25 H62C         1.1360     3.8940    -0.5920 hc         1 6YR       0.047700
     26 H63C         1.8750     3.3090     0.9040 hc         1 6YR       0.047700
     27 H81C        -2.3150     2.5320    -0.0840 h1         1 6YR       0.057033
     28 H82C        -2.8370     1.5570    -1.4900 h1         1 6YR       0.057033
     29 H83C        -3.9090     1.7270    -0.0700 h1         1 6YR       0.057033
@<TRIPOS>BOND
     1     1     2 1   
     2     1    14 1   
     3     2     3 1   
     4     2     8 1   
     5     2    15 1   
     6     3     4 1   
     7     3     5 1   
     8     3    16 1   
     9     4    18 1   
    10     5     6 1   
    11     5    11 1   
    12     5    19 1   
    13     6     7 1   
    14     7    21 1   
    15     7    22 1   
    16     7    23 1   
    17     8     9 1   
    18     8    10 1   
    19     8    17 1   
    20     9    24 1   
    21     9    25 1   
    22     9    26 1   
    23    10    11 1   
    24    11    12 1   
    25    11    20 1   
    26    12    13 1   
    27    13    27 1   
    28    13    28 1   
    29    13    29 1   
@<TRIPOS>SUBSTRUCTURE
     1 6YR         1 TEMP              0 ****  ****    0 ROOT
