@<TRIPOS>MOLECULE
6YS
   37    39     1     0     0
SMALL
No Charge or Current Charge


@<TRIPOS>ATOM
      1 C7          -5.5360    -1.0870     0.3390 c          1 6YS       0.737000
      2 C6           3.0040    -0.5080     0.2340 ca         1 6YS      -0.059000
      3 C1           4.6450     1.3000     0.1150 ca         1 6YS      -0.114000
      4 C5           5.3850    -1.0180     0.0800 ca         1 6YS       0.129000
      5 C4           5.6830     0.3570     0.0510 ca         1 6YS       0.085000
      6 C3           4.0510    -1.4470     0.1720 ca         1 6YS      -0.136000
      7 C2           3.3070     0.8710     0.2060 ca         1 6YS      -0.110000
      8 C8          -1.7440     2.3780    -0.5800 c          1 6YS       0.693000
      9 C9          -4.0630    -0.7440     0.3720 cx         1 6YS      -0.219700
     10 C10         -3.3290    -0.5770    -0.9570 cx         1 6YS      -0.102700
     11 C11         -3.6260     0.6340    -0.1190 cx         1 6YS      -0.078700
     12 C12         -1.2870    -0.0170     0.2970 c5         1 6YS      -0.076700
     13 C13         -1.8010    -0.7970    -0.9630 c5         1 6YS       0.190300
     14 C14         -2.2790     1.2140     0.4020 c5         1 6YS       0.062200
     15 C15          0.2210     0.3500     0.2590 c3         1 6YS       0.086600
     16 N16         -2.4310     1.6440     1.8310 n8         1 6YS      -0.984200
     17 O17         -5.8750    -2.1200    -0.2190 o          1 6YS      -0.757000
     18 O19         -6.3160    -0.3450     0.9180 o          1 6YS      -0.757000
     19 O21         -1.5020    -2.1900    -0.9050 oh         1 6YS      -0.663000
     20 F22          6.9650     0.7800    -0.0370 f          1 6YS      -0.185000
     21 F23          6.3780    -1.9350     0.0210 f          1 6YS      -0.183000
     22 S24          1.3240    -1.1340     0.3500 ss         1 6YS      -0.197000
     23 H1           4.8770     2.3620     0.0940 ha         1 6YS       0.125000
     24 H2           3.8310    -2.5110     0.1940 ha         1 6YS       0.137000
     25 H3           2.5250     1.6240     0.2570 ha         1 6YS       0.151000
     26 H4          -3.5310    -1.1890     1.2050 hc         1 6YS       0.067700
     27 H5          -3.8920    -0.7230    -1.8750 hc         1 6YS       0.093700
     28 H6          -4.3990     1.3180    -0.4630 hc         1 6YS       0.098700
     29 H7          -1.3910    -0.6460     1.1880 hc         1 6YS       0.069700
     30 H8          -1.3610    -0.3630    -1.8730 h1         1 6YS       0.041700
     31 H9           0.4470     0.8940    -0.6670 h1         1 6YS       0.079200
     32 H10          0.4490     1.0020     1.1120 h1         1 6YS       0.079200
     33 H11         -1.6120     2.2130     2.0760 hn         1 6YS       0.382500
     34 H12         -3.2000     2.3190     1.8900 hn         1 6YS       0.382500
     35 H16         -0.5440    -2.2560    -0.7060 ho         1 6YS       0.414000
     36 O18         -2.0170     2.3570    -1.7730 o          1 6YS      -0.740500
     37 O20         -1.1220     3.3170    -0.0960 o          1 6YS      -0.740500
@<TRIPOS>BOND
     1     1     9 1   
     2     1    17 1   
     3     1    18 1   
     4     2     6 ar  
     5     2     7 ar  
     6     2    22 1   
     7     3     5 ar  
     8     3     7 ar  
     9     3    23 1   
    10     4     5 ar  
    11     4     6 ar  
    12     4    21 1   
    13     5    20 1   
    14     6    24 1   
    15     7    25 1   
    16     8    14 1   
    17     8    36 1   
    18     8    37 1   
    19     9    10 1   
    20     9    11 1   
    21     9    26 1   
    22    10    11 1   
    23    10    13 1   
    24    10    27 1   
    25    11    14 1   
    26    11    28 1   
    27    12    13 1   
    28    12    14 1   
    29    12    15 1   
    30    12    29 1   
    31    13    19 1   
    32    13    30 1   
    33    14    16 1   
    34    15    22 1   
    35    15    31 1   
    36    15    32 1   
    37    16    33 1   
    38    16    34 1   
    39    19    35 1   
@<TRIPOS>SUBSTRUCTURE
     1 6YS         1 TEMP              0 ****  ****    0 ROOT
