@<TRIPOS>MOLECULE
6YS
   37    39     1     0     0
SMALL
abcg2


@<TRIPOS>ATOM
      1 C7          -5.4260    -1.0890     0.1780 c          1 6YS       0.737000
      2 C6           2.8910    -0.4530     0.2770 ca         1 6YS      -0.059000
      3 C1           4.5670     1.2620     0.0170 ca         1 6YS      -0.114000
      4 C5           5.1900    -1.0450    -0.0460 ca         1 6YS       0.129000
      5 C4           5.5380     0.2950    -0.1100 ca         1 6YS       0.085000
      6 C3           3.8820    -1.4280     0.1410 ca         1 6YS      -0.136000
      7 C2           3.2420     0.8910     0.2150 ca         1 6YS      -0.110000
      8 C8          -1.7440     2.4090    -0.3250 c          1 6YS       0.693000
      9 C9          -3.9570    -0.7440     0.2980 cx         1 6YS      -0.219700
     10 C10         -3.1740    -0.5350    -0.9740 cx         1 6YS      -0.102700
     11 C11         -3.5100     0.6310    -0.1240 cx         1 6YS      -0.078700
     12 C12         -1.2410     0.0150     0.3490 c5         1 6YS      -0.076700
     13 C13         -1.6860    -0.7520    -0.9100 c5         1 6YS       0.190300
     14 C14         -2.2480     1.1890     0.5050 c5         1 6YS       0.062200
     15 C15          0.2200     0.4450     0.3520 c3         1 6YS       0.086600
     16 N16         -2.4460     1.4950     1.9170 n8         1 6YS      -0.984200
     17 O17         -5.8810    -1.8800     1.0310 o          1 6YS      -0.757000
     18 O19         -6.0660    -0.5620    -0.7570 o          1 6YS      -0.757000
     19 O21         -1.3840    -2.1330    -0.8920 oh         1 6YS      -0.663000
     20 F22          6.8210     0.6290    -0.2950 f          1 6YS      -0.185000
     21 F23          6.1450    -1.9710    -0.1750 f          1 6YS      -0.183000
     22 S24          1.2550    -1.0340     0.5570 ss         1 6YS      -0.197000
     23 H1           4.8400     2.3080    -0.0330 ha         1 6YS       0.125000
     24 H2           3.6420    -2.4840     0.1770 ha         1 6YS       0.137000
     25 H3           2.5020     1.6700     0.3230 ha         1 6YS       0.151000
     26 H4          -3.4460    -1.2100     1.1350 hc         1 6YS       0.067700
     27 H5          -3.6800    -0.7070    -1.9160 hc         1 6YS       0.093700
     28 H6          -4.2840     1.3280    -0.4260 hc         1 6YS       0.098700
     29 H7          -1.4040    -0.6350     1.2160 hc         1 6YS       0.069700
     30 H8          -1.2350    -0.2740    -1.7890 h1         1 6YS       0.041700
     31 H9           0.4820     0.9320    -0.5890 h1         1 6YS       0.079200
     32 H10          0.4180     1.1380     1.1710 h1         1 6YS       0.079200
     33 H11         -1.7440     2.1800     2.1790 hn         1 6YS       0.382500
     34 H12         -3.3230     1.9950     2.0120 hn         1 6YS       0.382500
     35 H16         -0.4330    -2.2340    -1.0050 ho         1 6YS       0.414000
     36 O18         -1.8160     2.3130    -1.5660 o          1 6YS      -0.740500
     37 O20         -1.2740     3.3720     0.3140 o          1 6YS      -0.740500
@<TRIPOS>BOND
     1     1     9 1   
     2     1    17 1   
     3     1    18 1   
     4     2     6 ar  
     5     2     7 ar  
     6     2    22 1   
     7     3     5 ar  
     8     3     7 ar  
     9     3    23 1   
    10     4     5 ar  
    11     4     6 ar  
    12     4    21 1   
    13     5    20 1   
    14     6    24 1   
    15     7    25 1   
    16     8    14 1   
    17     8    36 1   
    18     8    37 1   
    19     9    10 1   
    20     9    11 1   
    21     9    26 1   
    22    10    11 1   
    23    10    13 1   
    24    10    27 1   
    25    11    14 1   
    26    11    28 1   
    27    12    13 1   
    28    12    14 1   
    29    12    15 1   
    30    12    29 1   
    31    13    19 1   
    32    13    30 1   
    33    14    16 1   
    34    15    22 1   
    35    15    31 1   
    36    15    32 1   
    37    16    33 1   
    38    16    34 1   
    39    19    35 1   
@<TRIPOS>SUBSTRUCTURE
     1 6YS         1 TEMP              0 ****  ****    0 ROOT
