@<TRIPOS>MOLECULE
6YT
   37    38     1     0     0
SMALL
abcg2


@<TRIPOS>ATOM
      1 CAK         -4.2850    -1.3620     0.8540 ca         1 6YT      -0.148000
      2 CAF         -5.1860    -2.3310     0.4450 ca         1 6YT      -0.078000
      3 CAE         -6.0590    -2.0350    -0.5930 ca         1 6YT      -0.178000
      4 CAH         -5.9830    -0.7780    -1.1710 ca         1 6YT       0.335900
      5 NAN         -5.1200     0.1560    -0.7860 nb         1 6YT      -0.661000
      6 CAU         -4.2870    -0.1270     0.2110 ca         1 6YT       0.374300
      7 CAL         -3.3090     0.9380     0.6080 c3         1 6YT       0.003300
      8 SAQ         -1.7200     0.5900    -0.2120 ss         1 6YT      -0.469000
      9 CB          -0.7320     1.9540     0.4690 c3         1 6YT       0.089600
     10 CA           0.6690     1.9350    -0.1240 c3         1 6YT      -0.043300
     11 C            1.5010     3.1430     0.4100 c          1 6YT       0.721000
     12 OXT          0.9640     4.2530     0.2400 o          1 6YT      -0.705000
     13 O            2.5960     2.8940     0.9310 o          1 6YT      -0.705000
     14 N            1.2910     0.6640     0.1500 ns         1 6YT      -0.403900
     15 CAS          2.3310     0.1970    -0.5250 c          1 6YT       0.517600
     16 OAB          2.7670     0.7100    -1.5680 o          1 6YT      -0.667100
     17 CAV          2.9580    -1.0400     0.0160 ca         1 6YT       0.201500
     18 NAO          2.4610    -1.5460     1.1420 nb         1 6YT      -0.629000
     19 CAI          2.9900    -2.6390     1.6530 ca         1 6YT       0.276900
     20 CAG          4.0640    -3.2920     1.0500 ca         1 6YT      -0.122000
     21 CAJ          4.5930    -2.7830    -0.1160 ca         1 6YT      -0.153000
     22 CAT          4.0370    -1.6230    -0.6630 ca         1 6YT       0.171100
     23 OAD          4.5410    -1.1230    -1.7870 oh         1 6YT      -0.561100
     24 HAK         -3.5870    -1.5530     1.6580 ha         1 6YT       0.130000
     25 HAF         -5.2080    -3.2990     0.9280 ha         1 6YT       0.111000
     26 HAE         -6.7810    -2.7570    -0.9470 ha         1 6YT       0.113000
     27 HAH         -6.6490    -0.5100    -1.9840 h4         1 6YT       0.011100
     28 HAL1        -3.6750     1.9170     0.3010 h1         1 6YT       0.070700
     29 HAL2        -3.1540     0.9420     1.6880 h1         1 6YT       0.070700
     30 HB1C        -1.2050     2.9030     0.2230 h1         1 6YT       0.069700
     31 HB2C        -0.6950     1.8610     1.5580 h1         1 6YT       0.069700
     32 HA           0.5860     2.0490    -1.2090 h1         1 6YT       0.079700
     33 H            1.0820     0.1960     1.0210 hn         1 6YT       0.329500
     34 HAI          2.5550    -3.0160     2.5700 h4         1 6YT       0.011100
     35 HAG          4.4740    -4.1880     1.4950 ha         1 6YT       0.107000
     36 HAJ          5.4260    -3.2640    -0.6130 ha         1 6YT       0.122000
     37 HAD          4.0110    -0.3130    -1.9990 ho         1 6YT       0.536000
@<TRIPOS>BOND
     1     1     2 ar  
     2     1     6 ar  
     3     1    24 1   
     4     2     3 ar  
     5     2    25 1   
     6     3     4 ar  
     7     3    26 1   
     8     4     5 ar  
     9     4    27 1   
    10     5     6 ar  
    11     6     7 1   
    12     7     8 1   
    13     7    28 1   
    14     7    29 1   
    15     8     9 1   
    16     9    10 1   
    17     9    30 1   
    18     9    31 1   
    19    10    11 1   
    20    10    14 1   
    21    10    32 1   
    22    11    12 1   
    23    11    13 1   
    24    14    15 1   
    25    14    33 1   
    26    15    16 2   
    27    15    17 1   
    28    17    18 ar  
    29    17    22 ar  
    30    18    19 ar  
    31    19    20 ar  
    32    19    34 1   
    33    20    21 ar  
    34    20    35 1   
    35    21    22 ar  
    36    21    36 1   
    37    22    23 1   
    38    23    37 1   
@<TRIPOS>SUBSTRUCTURE
     1 6YT         1 TEMP              0 ****  ****    0 ROOT
