@<TRIPOS>MOLECULE
6YT
   37    38     1     0     0
SMALL
No Charge or Current Charge


@<TRIPOS>ATOM
      1 CAK         -3.8540    -1.6120     0.2810 ca         1 6YT      -0.148000
      2 CAF         -4.7630    -2.5800    -0.1760 ca         1 6YT      -0.078000
      3 CAE         -5.9220    -2.1370    -0.8330 ca         1 6YT      -0.178000
      4 CAH         -6.1270    -0.7570    -1.0060 ca         1 6YT       0.335900
      5 NAN         -5.2530     0.1770    -0.5670 nb         1 6YT      -0.661000
      6 CAU         -4.1310    -0.2480     0.0650 ca         1 6YT       0.374300
      7 CAL         -3.1660     0.8290     0.5570 c3         1 6YT       0.003300
      8 SAQ         -1.5040     0.7400    -0.2750 ss         1 6YT      -0.469000
      9 CB          -0.6440     2.1440     0.5800 c3         1 6YT       0.089600
     10 CA           0.8240     2.2900     0.1170 c3         1 6YT      -0.043300
     11 C            1.4720     3.5440     0.7600 c          1 6YT       0.721000
     12 OXT          1.8710     4.4310     0.0190 o          1 6YT      -0.705000
     13 O            1.6020     3.5720     1.9760 o          1 6YT      -0.705000
     14 N            1.6330     1.0840     0.4250 ns         1 6YT      -0.403900
     15 CAS          2.0590     0.1400    -0.4890 c          1 6YT       0.517600
     16 OAB          1.8630     0.2640    -1.6980 o          1 6YT      -0.667100
     17 CAV          2.8040    -1.0580     0.1020 ca         1 6YT       0.201500
     18 NAO          3.0050    -1.1140     1.4570 nb         1 6YT      -0.629000
     19 CAI          3.6650    -2.1810     1.9640 ca         1 6YT       0.276900
     20 CAG          4.1500    -3.2300     1.1640 ca         1 6YT      -0.122000
     21 CAJ          3.9500    -3.1850    -0.2270 ca         1 6YT      -0.153000
     22 CAT          3.2680    -2.0850    -0.7710 ca         1 6YT       0.171100
     23 OAD          3.0670    -2.0280    -2.1260 oh         1 6YT      -0.561100
     24 HAK         -2.9430    -1.9090     0.7940 ha         1 6YT       0.130000
     25 HAF         -4.5750    -3.6410    -0.0250 ha         1 6YT       0.111000
     26 HAE         -6.6550    -2.8470    -1.2050 ha         1 6YT       0.113000
     27 HAH         -7.0180    -0.3880    -1.5110 h4         1 6YT       0.011100
     28 HAL1        -3.5980     1.8220     0.3800 h1         1 6YT       0.070700
     29 HAL2        -3.0290     0.7110     1.6390 h1         1 6YT       0.070700
     30 HB1C        -1.1860     3.0750     0.3650 h1         1 6YT       0.069700
     31 HB2C        -0.6730     1.9770     1.6650 h1         1 6YT       0.069700
     32 HA           0.8260     2.4530    -0.9680 h1         1 6YT       0.079700
     33 H            1.8730     0.8910     1.3930 hn         1 6YT       0.329500
     34 HAI          3.8080    -2.1940     3.0440 h4         1 6YT       0.011100
     35 HAG          4.6740    -4.0650     1.6220 ha         1 6YT       0.107000
     36 HAJ          4.3160    -3.9830    -0.8680 ha         1 6YT       0.122000
     37 HAD          2.5750    -1.1770    -2.2980 ho         1 6YT       0.536000
@<TRIPOS>BOND
     1     1     2 ar  
     2     1     6 ar  
     3     1    24 1   
     4     2     3 ar  
     5     2    25 1   
     6     3     4 ar  
     7     3    26 1   
     8     4     5 ar  
     9     4    27 1   
    10     5     6 ar  
    11     6     7 1   
    12     7     8 1   
    13     7    28 1   
    14     7    29 1   
    15     8     9 1   
    16     9    10 1   
    17     9    30 1   
    18     9    31 1   
    19    10    11 1   
    20    10    14 1   
    21    10    32 1   
    22    11    12 1   
    23    11    13 1   
    24    14    15 1   
    25    14    33 1   
    26    15    16 2   
    27    15    17 1   
    28    17    18 ar  
    29    17    22 ar  
    30    18    19 ar  
    31    19    20 ar  
    32    19    34 1   
    33    20    21 ar  
    34    20    35 1   
    35    21    22 ar  
    36    21    36 1   
    37    22    23 1   
    38    23    37 1   
@<TRIPOS>SUBSTRUCTURE
     1 6YT         1 TEMP              0 ****  ****    0 ROOT
