@<TRIPOS>MOLECULE
6Z0
   42    44     1     0     0
SMALL
bcc


@<TRIPOS>ATOM
      1 C2           6.1920    -0.7250    -0.3240 ca         1 6Z0      -0.061000
      2 C3           5.0630    -1.5210    -0.2770 ca         1 6Z0      -0.187300
      3 C4           3.8270    -0.9020    -0.1530 ca         1 6Z0       0.366800
      4 N5           3.6790     0.4160    -0.0790 nb         1 6Z0      -0.681000
      5 C6           4.7470     1.1840    -0.1220 ca         1 6Z0       0.447200
      6 N9           1.4540    -1.0180     0.0240 ns         1 6Z0      -0.451100
      7 C15         -2.5450    -2.0950     0.3560 ca         1 6Z0       0.135900
      8 C1           6.0330     0.6550    -0.2440 ca         1 6Z0      -0.113300
      9 C7           2.5810    -1.7440    -0.0950 c          1 6Z0       0.580600
     10 O8           2.6470    -2.9590    -0.1530 o          1 6Z0      -0.578100
     11 C10          7.1600     1.5270    -0.2850 cg         1 6Z0       0.225800
     12 N11          8.0670     2.2350    -0.3170 n1         1 6Z0      -0.332800
     13 C12          0.1320    -1.4570     0.1250 ca         1 6Z0       0.055600
     14 C13         -0.2660    -2.7880     0.0460 ca         1 6Z0      -0.113000
     15 C14         -1.6120    -3.0920     0.1640 ca         1 6Z0      -0.150000
     16 C16         -2.1870    -0.7520     0.4440 ca         1 6Z0      -0.124300
     17 C17         -0.8340    -0.4700     0.3230 ca         1 6Z0      -0.140000
     18 C20         -4.1660     0.0600     1.8230 c3         1 6Z0      -0.109100
     19 O22         -2.8170     2.8110    -0.8800 os         1 6Z0      -0.448400
     20 C23         -2.4430     2.7990     0.4130 c2         1 6Z0       0.820500
     21 N28         -2.4680     1.5950     1.0520 nu         1 6Z0      -0.908200
     22 C25         -3.9130     0.7140    -0.6330 c6         1 6Z0       0.392600
     23 C60         -3.0490     1.5750    -1.5250 c6         1 6Z0       0.096400
     24 F26         -5.0700     1.3790    -0.3690 f          1 6Z0      -0.219300
     25 F27         -4.2610    -0.4130    -1.2960 f          1 6Z0      -0.219300
     26 C5          -3.1910     0.3880     0.6850 c6         1 6Z0       0.283500
     27 N24         -2.0670     3.8520     1.0120 n2         1 6Z0      -0.867100
     28 H2           7.1760    -1.1630    -0.4190 ha         1 6Z0       0.158000
     29 H3           5.1430    -2.5960    -0.3330 ha         1 6Z0       0.176000
     30 H6           4.5950     2.2550    -0.0600 h4         1 6Z0       0.040100
     31 H9           1.5970    -0.0160     0.0610 hn         1 6Z0       0.352500
     32 H14         -1.9410    -4.1220     0.1070 ha         1 6Z0       0.157000
     33 H13          0.4430    -3.5850    -0.1030 ha         1 6Z0       0.173000
     34 H17         -0.5120     0.5600     0.3950 ha         1 6Z0       0.150000
     35 H201        -3.6030    -0.2900     2.6880 hc         1 6Z0       0.063033
     36 H202        -4.7080     0.9560     2.1170 hc         1 6Z0       0.063033
     37 H203        -4.8910    -0.7050     1.5630 hc         1 6Z0       0.063033
     38 H601        -3.5630     1.7950    -2.4600 h1         1 6Z0       0.085200
     39 H602        -2.1110     1.0630    -1.7600 h1         1 6Z0       0.085200
     40 H24         -2.0350     4.6400     0.3780 hn         1 6Z0       0.413400
     41 H28         -2.1970     1.6540     2.0220 hn         1 6Z0       0.454800
     42 F18         -3.8290    -2.4760     0.4610 f          1 6Z0      -0.136900
@<TRIPOS>BOND
     1     1     2 ar  
     2     1     8 ar  
     3     1    28 1   
     4     2     3 ar  
     5     2    29 1   
     6     3     4 ar  
     7     3     9 1   
     8     4     5 ar  
     9     5     8 ar  
    10     5    30 1   
    11     6     9 1   
    12     6    13 1   
    13     6    31 1   
    14     7    15 ar  
    15     7    16 ar  
    16     7    42 1   
    17     8    11 1   
    18     9    10 2   
    19    11    12 3   
    20    13    14 ar  
    21    13    17 ar  
    22    14    15 ar  
    23    14    33 1   
    24    15    32 1   
    25    16    17 ar  
    26    16    26 1   
    27    17    34 1   
    28    18    26 1   
    29    18    35 1   
    30    18    36 1   
    31    18    37 1   
    32    19    20 1   
    33    19    23 1   
    34    20    21 1   
    35    20    27 2   
    36    21    26 1   
    37    21    41 1   
    38    22    23 1   
    39    22    24 1   
    40    22    25 1   
    41    22    26 1   
    42    23    38 1   
    43    23    39 1   
    44    27    40 1   
@<TRIPOS>SUBSTRUCTURE
     1 6Z0         1 TEMP              0 ****  ****    0 ROOT
