@<TRIPOS>MOLECULE
6Z0
   42    44     1     0     0
SMALL
No Charge or Current Charge


@<TRIPOS>ATOM
      1 C2           6.3020    -0.6480    -0.4100 ca         1 6Z0      -0.043000
      2 C3           5.1540    -1.4580    -0.3490 ca         1 6Z0      -0.104000
      3 C4           3.8830    -0.8670    -0.1680 ca         1 6Z0       0.301500
      4 N5           3.7440     0.4890    -0.0490 nb         1 6Z0      -0.681000
      5 C6           4.8550     1.2660    -0.1100 ca         1 6Z0       0.381900
      6 N9           1.4480    -1.0550     0.0810 ns         1 6Z0      -0.125000
      7 C15         -2.6440    -2.1210     0.4230 ca         1 6Z0       0.171000
      8 C1           6.1460     0.7430    -0.2880 ca         1 6Z0      -0.048000
      9 C7           2.6370    -1.7560    -0.1020 c          1 6Z0       0.513600
     10 O8           2.6940    -2.9810    -0.2030 o          1 6Z0      -0.578100
     11 C10          7.2740     1.6240    -0.3420 cg         1 6Z0       0.315000
     12 N11          8.1990     2.3330    -0.3870 n1         1 6Z0      -0.422000
     13 C12          0.0890    -1.4660     0.1950 ca         1 6Z0      -0.037000
     14 C13         -0.3230    -2.8110     0.1380 ca         1 6Z0      -0.095000
     15 C14         -1.6840    -3.1280     0.2470 ca         1 6Z0      -0.132000
     16 C16         -2.2650    -0.7530     0.5050 ca         1 6Z0      -0.124300
     17 C17         -0.8790    -0.4590     0.3730 ca         1 6Z0      -0.122000
     18 C20         -4.3700     0.0440     1.7860 c3         1 6Z0      -0.109100
     19 O22         -2.6140     2.7670    -0.8550 os         1 6Z0      -0.471600
     20 C23         -2.2590     2.6790     0.4540 c2         1 6Z0       0.820500
     21 N28         -2.6500     1.6140     1.1910 nu         1 6Z0      -0.963400
     22 C25         -4.0080     0.7600    -0.6780 c6         1 6Z0       0.150000
     23 C60         -3.0430     1.5760    -1.5580 c6         1 6Z0       0.119600
     24 F26         -5.1760     1.5240    -0.4650 f          1 6Z0      -0.098000
     25 F27         -4.4170    -0.3930    -1.3740 f          1 6Z0      -0.098000
     26 C5          -3.3180     0.3980     0.6890 c6         1 6Z0       0.283500
     27 N24         -1.7020     3.6430     1.0320 n2         1 6Z0      -0.867100
     28 H2           7.2860    -1.0940    -0.5500 ha         1 6Z0       0.140000
     29 H3           5.2480    -2.5380    -0.4410 ha         1 6Z0       0.158000
     30 H6           4.6960     2.3400    -0.0110 h4         1 6Z0       0.040100
     31 H9           1.5830    -0.0530     0.1440 hn         1 6Z0       0.186000
     32 H14         -2.0030    -4.1660     0.1900 ha         1 6Z0       0.139000
     33 H13          0.3860    -3.6220     0.0020 ha         1 6Z0       0.155000
     34 H17         -0.5270     0.5690     0.4020 ha         1 6Z0       0.132000
     35 H201        -3.8930    -0.4040     2.6650 hc         1 6Z0       0.063033
     36 H202        -4.9100     0.9360     2.1270 hc         1 6Z0       0.063033
     37 H203        -5.1360    -0.6500     1.4240 hc         1 6Z0       0.063033
     38 H601        -3.5290     1.8640    -2.5010 h1         1 6Z0       0.085200
     39 H602        -2.1610     0.9670    -1.8010 h1         1 6Z0       0.085200
     40 H24         -1.5670     4.3530     0.3010 hn         1 6Z0       0.413400
     41 H28         -2.3530     1.6660     2.1570 hn         1 6Z0       0.510000
     42 F18         -3.9360    -2.5070     0.4870 f          1 6Z0      -0.172000
@<TRIPOS>BOND
     1     1     2 ar  
     2     1     8 ar  
     3     1    28 1   
     4     2     3 ar  
     5     2    29 1   
     6     3     4 ar  
     7     3     9 1   
     8     4     5 ar  
     9     5     8 ar  
    10     5    30 1   
    11     6     9 1   
    12     6    13 1   
    13     6    31 1   
    14     7    15 ar  
    15     7    16 ar  
    16     7    42 1   
    17     8    11 1   
    18     9    10 2   
    19    11    12 3   
    20    13    14 ar  
    21    13    17 ar  
    22    14    15 ar  
    23    14    33 1   
    24    15    32 1   
    25    16    17 ar  
    26    16    26 1   
    27    17    34 1   
    28    18    26 1   
    29    18    35 1   
    30    18    36 1   
    31    18    37 1   
    32    19    20 1   
    33    19    23 1   
    34    20    21 1   
    35    20    27 2   
    36    21    26 1   
    37    21    41 1   
    38    22    23 1   
    39    22    24 1   
    40    22    25 1   
    41    22    26 1   
    42    23    38 1   
    43    23    39 1   
    44    27    40 1   
@<TRIPOS>SUBSTRUCTURE
     1 6Z0         1 TEMP              0 ****  ****    0 ROOT
