@<TRIPOS>MOLECULE
6Z1
   37    39     1     0     0
SMALL
No Charge or Current Charge


@<TRIPOS>ATOM
      1 O3           3.8780    -1.9310    -0.6420 o          1 6Z1      -0.589100
      2 C4           3.4650    -0.8490    -0.2270 c          1 6Z1       0.527600
      3 C3           4.3620     0.2960     0.1330 cc         1 6Z1       0.219500
      4 C2           5.7650     0.2050     0.0170 cc         1 6Z1      -0.199000
      5 N2           3.9640     1.4840     0.5850 nd         1 6Z1      -0.348300
      6 O4           5.1920     2.2170     0.7770 os         1 6Z1      -0.060700
      7 C1           6.2370     1.4070     0.4230 cd         1 6Z1       0.163300
      8 C            7.6440     1.9240     0.5260 c3         1 6Z1      -0.132400
      9 N            2.1170    -0.5500    -0.0400 ns         1 6Z1      -0.116000
     10 C5           0.9230    -1.3030    -0.2400 ca         1 6Z1      -0.081000
     11 C10         -0.3010    -0.6740     0.0580 ca         1 6Z1      -0.107000
     12 C9          -1.5440    -1.3390    -0.0980 cp         1 6Z1      -0.110500
     13 C8          -1.5300    -2.6720    -0.5920 ca         1 6Z1       0.147100
     14 O2          -2.6850    -3.3610    -0.8260 oh         1 6Z1      -0.500100
     15 C7          -0.3130    -3.3030    -0.8910 ca         1 6Z1      -0.206000
     16 C6           0.9080    -2.6300    -0.7160 ca         1 6Z1      -0.093000
     17 C11         -2.8110    -0.6110     0.2360 cp         1 6Z1       0.347500
     18 N1          -3.6650    -1.1970     1.1090 nb         1 6Z1      -0.680000
     19 C15         -4.7920    -0.5380     1.4540 ca         1 6Z1       0.291900
     20 C14         -5.1170     0.7360     0.9600 ca         1 6Z1      -0.128000
     21 C13         -4.2390     1.3820     0.0620 ca         1 6Z1      -0.112600
     22 C12         -3.0640     0.6790    -0.2910 ca         1 6Z1      -0.119000
     23 C16         -4.5400     2.7620    -0.4960 c          1 6Z1       0.715600
     24 O1          -3.7390     3.2670    -1.2700 o          1 6Z1      -0.712000
     25 O           -5.5740     3.3180    -0.1510 o          1 6Z1      -0.712000
     26 H            1.9560     0.3870     0.3080 hn         1 6Z1       0.175000
     27 H2           6.3300    -0.6540    -0.3270 ha         1 6Z1       0.166000
     28 HC1          7.7800     2.8130    -0.1000 hc         1 6Z1       0.060700
     29 HC2          7.8840     2.1980     1.5600 hc         1 6Z1       0.060700
     30 HC3          8.3670     1.1680     0.2010 hc         1 6Z1       0.060700
     31 H10         -0.2940     0.3480     0.4320 ha         1 6Z1       0.129000
     32 H6           1.8250    -3.1570    -0.9600 ha         1 6Z1       0.133000
     33 H7          -0.3040    -4.3220    -1.2720 ha         1 6Z1       0.104000
     34 H12         -2.3440     1.1190    -0.9760 ha         1 6Z1       0.136000
     35 H15         -5.4540    -1.0470     2.1530 h4         1 6Z1      -0.008900
     36 H14         -6.0400     1.2100     1.2810 ha         1 6Z1       0.134000
     37 H16         -2.4490    -4.2530    -1.1530 ho         1 6Z1       0.447000
@<TRIPOS>BOND
     1     1     2 2   
     2     2     3 1   
     3     2     9 1   
     4     3     4 1   
     5     3     5 2   
     6     4     7 2   
     7     4    27 1   
     8     5     6 1   
     9     6     7 1   
    10     7     8 1   
    11     8    28 1   
    12     8    29 1   
    13     8    30 1   
    14     9    10 1   
    15     9    26 1   
    16    10    11 ar  
    17    10    16 ar  
    18    11    12 ar  
    19    11    31 1   
    20    12    13 ar  
    21    12    17 1   
    22    13    14 1   
    23    13    15 ar  
    24    14    37 1   
    25    15    16 ar  
    26    15    33 1   
    27    16    32 1   
    28    17    18 ar  
    29    17    22 ar  
    30    18    19 ar  
    31    19    20 ar  
    32    19    35 1   
    33    20    21 ar  
    34    20    36 1   
    35    21    22 ar  
    36    21    23 1   
    37    22    34 1   
    38    23    24 1   
    39    23    25 1   
@<TRIPOS>SUBSTRUCTURE
     1 6Z1         1 TEMP              0 ****  ****    0 ROOT
