@<TRIPOS>MOLECULE
6Z1
   37    39     1     0     0
SMALL
abcg2


@<TRIPOS>ATOM
      1 O3           3.7660    -2.0170    -0.3650 o          1 6Z1      -0.589100
      2 C4           3.3690    -0.8810    -0.1790 c          1 6Z1       0.527600
      3 C3           4.3470     0.2140     0.0680 cc         1 6Z1       0.219500
      4 C2           5.7510     0.0860     0.1450 cc         1 6Z1      -0.199000
      5 N2           3.9710     1.4490     0.2430 nd         1 6Z1      -0.348300
      6 O4           5.1010     2.1600     0.4410 os         1 6Z1      -0.060700
      7 C1           6.1710     1.3530     0.3840 cd         1 6Z1       0.163300
      8 C            7.5040     1.9600     0.5820 c3         1 6Z1      -0.132400
      9 N            2.0820    -0.4840    -0.1710 ns         1 6Z1      -0.116000
     10 C5           0.9250    -1.2610    -0.3280 ca         1 6Z1      -0.081000
     11 C10         -0.2870    -0.6540    -0.0070 ca         1 6Z1      -0.107000
     12 C9          -1.5020    -1.3170    -0.1230 cp         1 6Z1      -0.110500
     13 C8          -1.5040    -2.6380    -0.5900 ca         1 6Z1       0.147100
     14 O2          -2.6840    -3.2660    -0.7440 oh         1 6Z1      -0.500100
     15 C7          -0.2960    -3.2440    -0.9140 ca         1 6Z1      -0.206000
     16 C6           0.9110    -2.5750    -0.7860 ca         1 6Z1      -0.093000
     17 C11         -2.7510    -0.6090     0.2380 cp         1 6Z1       0.347500
     18 N1          -3.5920    -1.2260     1.0660 nb         1 6Z1      -0.680000
     19 C15         -4.6940    -0.5820     1.4240 ca         1 6Z1       0.291900
     20 C14         -5.0180     0.6940     0.9880 ca         1 6Z1      -0.128000
     21 C13         -4.1500     1.3460     0.1200 ca         1 6Z1      -0.112600
     22 C12         -2.9980     0.6680    -0.2580 ca         1 6Z1      -0.119000
     23 C16         -4.4500     2.7500    -0.4050 c          1 6Z1       0.715600
     24 O1          -3.6290     3.2230    -1.2100 o          1 6Z1      -0.712000
     25 O           -5.4870     3.2850     0.0260 o          1 6Z1      -0.712000
     26 H            1.9210     0.4950     0.0230 hn         1 6Z1       0.175000
     27 H2           6.3520    -0.8000     0.0410 ha         1 6Z1       0.166000
     28 HC1          7.6960     2.7430    -0.1520 hc         1 6Z1       0.060700
     29 HC2          7.5910     2.4020     1.5750 hc         1 6Z1       0.060700
     30 HC3          8.2720     1.1970     0.4780 hc         1 6Z1       0.060700
     31 H10         -0.2890     0.3650     0.3630 ha         1 6Z1       0.129000
     32 H6           1.8220    -3.0870    -1.0520 ha         1 6Z1       0.133000
     33 H7          -0.2900    -4.2630    -1.2860 ha         1 6Z1       0.104000
     34 H12         -2.3000     1.1320    -0.9430 ha         1 6Z1       0.136000
     35 H15         -5.3580    -1.1080     2.1010 h4         1 6Z1      -0.008900
     36 H14         -5.9310     1.1670     1.3210 ha         1 6Z1       0.134000
     37 H16         -2.5440    -4.1480    -1.1080 ho         1 6Z1       0.447000
@<TRIPOS>BOND
     1     1     2 2   
     2     2     3 1   
     3     2     9 1   
     4     3     4 1   
     5     3     5 2   
     6     4     7 2   
     7     4    27 1   
     8     5     6 1   
     9     6     7 1   
    10     7     8 1   
    11     8    28 1   
    12     8    29 1   
    13     8    30 1   
    14     9    10 1   
    15     9    26 1   
    16    10    11 ar  
    17    10    16 ar  
    18    11    12 ar  
    19    11    31 1   
    20    12    13 ar  
    21    12    17 1   
    22    13    14 1   
    23    13    15 ar  
    24    14    37 1   
    25    15    16 ar  
    26    15    33 1   
    27    16    32 1   
    28    17    18 ar  
    29    17    22 ar  
    30    18    19 ar  
    31    19    20 ar  
    32    19    35 1   
    33    20    21 ar  
    34    20    36 1   
    35    21    22 ar  
    36    21    23 1   
    37    22    34 1   
    38    23    24 1   
    39    23    25 1   
@<TRIPOS>SUBSTRUCTURE
     1 6Z1         1 TEMP              0 ****  ****    0 ROOT
