@<TRIPOS>MOLECULE
6Z2
   48    51     1     0     0
SMALL
bcc


@<TRIPOS>ATOM
      1 C4           1.0510    -2.4320    -0.8790 ca         1 6Z2       0.521200
      2 C14         -2.5280    -2.3410     0.0590 c          1 6Z2       0.711500
      3 C6           3.7080     0.7400     0.2220 ca         1 6Z2       0.061300
      4 C11          4.5380    -0.1270    -0.4870 ca         1 6Z2      -0.121000
      5 C7           4.2900     1.9120     0.7290 ca         1 6Z2       0.348200
      6 C13         -1.4760    -3.1890    -0.6650 c5         1 6Z2      -0.050700
      7 N1           0.2500    -0.2490     0.5640 nb         1 6Z2      -0.791000
      8 N            1.9440    -1.4810    -0.5710 nb         1 6Z2      -0.785000
      9 C            1.5080    -0.4460     0.1280 ca         1 6Z2       0.936900
     10 C2          -0.5870    -1.1930     0.2310 ca         1 6Z2       0.611200
     11 C3          -0.2570    -2.3390    -0.4990 ca         1 6Z2      -0.422900
     12 N5           2.3600     0.5590     0.4750 nu         1 6Z2      -0.726300
     13 N8           5.5600     2.2340     0.5730 nb         1 6Z2      -0.641000
     14 C9           6.3450     1.4030    -0.1050 ca         1 6Z2       0.367200
     15 C10          5.8720     0.2200    -0.6460 ca         1 6Z2      -0.219300
     16 N12         -1.9250    -1.2020     0.5520 n          1 6Z2      -0.463300
     17 C15         -1.8800    -3.3720    -2.1290 c3         1 6Z2      -0.073100
     18 C16         -1.3430    -4.5430     0.0380 c3         1 6Z2      -0.073100
     19 O           -3.6990    -2.6110     0.1850 o          1 6Z2      -0.580500
     20 C17         -2.6230    -0.1570     1.2970 c3         1 6Z2       0.179000
     21 C18         -2.5220     1.1590     0.5520 ca         1 6Z2      -0.113300
     22 C19         -3.1440     1.2740    -0.6890 ca         1 6Z2      -0.080000
     23 C20         -3.0820     2.4500    -1.4210 ca         1 6Z2      -0.175500
     24 C21         -2.3870     3.5180    -0.8890 ca         1 6Z2       0.143900
     25 C22         -1.7620     3.4450     0.3400 ca         1 6Z2      -0.175500
     26 C23         -1.8330     2.2560     1.0530 ca         1 6Z2      -0.080000
     27 C24         -2.1750    -0.1280     2.7500 c3         1 6Z2      -0.103100
     28 F           -2.3190     4.6630    -1.5880 f          1 6Z2      -0.142900
     29 H1           1.4280    -3.2770    -1.4460 h4         1 6Z2       0.028100
     30 H2           4.1560    -1.0450    -0.9020 ha         1 6Z2       0.173000
     31 H3           3.6750     2.6120     1.2880 h4         1 6Z2       0.014100
     32 H4           1.9120     1.2950     1.0000 hn         1 6Z2       0.457800
     33 H5           7.3840     1.6900    -0.2200 h4         1 6Z2       0.022100
     34 H6           6.5380    -0.4330    -1.1930 ha         1 6Z2       0.141000
     35 H7          -1.9890    -2.4150    -2.6410 hc         1 6Z2       0.048200
     36 H8          -1.1170    -3.9490    -2.6530 hc         1 6Z2       0.048200
     37 H9          -2.8230    -3.9140    -2.2040 hc         1 6Z2       0.048200
     38 H10         -2.2750    -5.1050    -0.0240 hc         1 6Z2       0.048200
     39 H11         -0.5610    -5.1310    -0.4410 hc         1 6Z2       0.048200
     40 H12         -1.0790    -4.4260     1.0900 hc         1 6Z2       0.048200
     41 H13         -3.6720    -0.4600     1.2840 h1         1 6Z2       0.083700
     42 H14         -3.6950     0.4350    -1.0980 ha         1 6Z2       0.138000
     43 H15         -3.5700     2.5320    -2.3840 ha         1 6Z2       0.150500
     44 H16         -1.2230     4.2970     0.7340 ha         1 6Z2       0.150500
     45 H17         -1.3330     2.1990     2.0100 ha         1 6Z2       0.138000
     46 H18         -2.3430    -1.1030     3.2050 hc         1 6Z2       0.050367
     47 H19         -1.1210     0.1220     2.8570 hc         1 6Z2       0.050367
     48 H20         -2.7610     0.6030     3.3060 hc         1 6Z2       0.050367
@<TRIPOS>BOND
     1     1     8 ar  
     2     1    11 ar  
     3     1    29 1   
     4     2     6 1   
     5     2    16 1   
     6     2    19 2   
     7     3     4 ar  
     8     3     5 ar  
     9     3    12 1   
    10     4    15 ar  
    11     4    30 1   
    12     5    13 ar  
    13     5    31 1   
    14     6    11 1   
    15     6    17 1   
    16     6    18 1   
    17     7     9 ar  
    18     7    10 ar  
    19     8     9 ar  
    20     9    12 1   
    21    10    11 ar  
    22    10    16 1   
    23    12    32 1   
    24    13    14 ar  
    25    14    15 ar  
    26    14    33 1   
    27    15    34 1   
    28    16    20 1   
    29    17    35 1   
    30    17    36 1   
    31    17    37 1   
    32    18    38 1   
    33    18    39 1   
    34    18    40 1   
    35    20    21 1   
    36    20    27 1   
    37    20    41 1   
    38    21    22 ar  
    39    21    26 ar  
    40    22    23 ar  
    41    22    42 1   
    42    23    24 ar  
    43    23    43 1   
    44    24    25 ar  
    45    24    28 1   
    46    25    26 ar  
    47    25    44 1   
    48    26    45 1   
    49    27    46 1   
    50    27    47 1   
    51    27    48 1   
@<TRIPOS>SUBSTRUCTURE
     1 6Z2         1 TEMP              0 ****  ****    0 ROOT
