@<TRIPOS>MOLECULE
6Z2
   48    51     1     0     0
SMALL
No Charge or Current Charge


@<TRIPOS>ATOM
      1 C4           1.0820    -2.5390    -0.7180 ca         1 6Z2       0.192900
      2 C14         -2.6260    -2.4070     0.0890 c          1 6Z2       0.569000
      3 C6           3.7850     0.7710     0.2790 ca         1 6Z2       0.265000
      4 C11          4.4120     0.2810    -0.8860 ca         1 6Z2      -0.103000
      5 C7           4.5810     1.5620     1.1560 ca         1 6Z2       0.282900
      6 C13         -1.4720    -3.2610    -0.5690 c5         1 6Z2      -0.050700
      7 N1           0.2460    -0.2280     0.5840 nb         1 6Z2      -0.265000
      8 N            1.9820    -1.5760    -0.4210 nb         1 6Z2      -0.259000
      9 C            1.5160    -0.4680     0.2040 ca         1 6Z2       0.410900
     10 C2          -0.6200    -1.2020     0.2690 ca         1 6Z2       0.282900
     11 C3          -0.2640    -2.3630    -0.3710 ca         1 6Z2      -0.292300
     12 N5           2.4180     0.5270     0.5540 nu         1 6Z2      -0.919900
     13 N8           5.8940     1.8480     0.9520 nb         1 6Z2      -0.641000
     14 C9           6.4730     1.3520    -0.1650 ca         1 6Z2       0.301900
     15 C10          5.7720     0.5740    -1.1040 ca         1 6Z2      -0.136000
     16 N12         -2.0030    -1.2270     0.5370 n          1 6Z2      -0.396300
     17 C15         -1.7680    -3.5070    -2.0690 c3         1 6Z2      -0.073100
     18 C16         -1.3140    -4.6170     0.1610 c3         1 6Z2      -0.073100
     19 O           -3.8150    -2.6730     0.2060 o          1 6Z2      -0.505000
     20 C17         -2.7410    -0.1370     1.2110 c3         1 6Z2       0.179000
     21 C18         -2.5810     1.2040     0.4790 ca         1 6Z2      -0.113300
     22 C19         -3.1660     1.3420    -0.7980 ca         1 6Z2      -0.062000
     23 C20         -3.0400     2.5430    -1.5170 ca         1 6Z2      -0.157500
     24 C21         -2.3260     3.6160    -0.9650 ca         1 6Z2       0.179000
     25 C22         -1.7360     3.4940     0.3000 ca         1 6Z2      -0.157500
     26 C23         -1.8610     2.2940     1.0230 ca         1 6Z2      -0.062000
     27 C24         -2.4360    -0.1030     2.7250 c3         1 6Z2      -0.103100
     28 F           -2.2040     4.7690    -1.6570 f          1 6Z2      -0.178000
     29 H1           1.4430    -3.4330    -1.2230 h4         1 6Z2       0.028100
     30 H2           3.8620    -0.2970    -1.6210 ha         1 6Z2       0.155000
     31 H3           4.1450     1.9770     2.0640 h4         1 6Z2       0.014100
     32 H4           2.0060     1.1890     1.2120 hn         1 6Z2       0.513000
     33 H5           7.5250     1.5920    -0.3160 h4         1 6Z2       0.022100
     34 H6           6.2810     0.2100    -1.9920 ha         1 6Z2       0.123000
     35 H7          -1.8970    -2.5590    -2.6050 hc         1 6Z2       0.048200
     36 H8          -0.9490    -4.0530    -2.5530 hc         1 6Z2       0.048200
     37 H9          -2.6870    -4.0920    -2.2040 hc         1 6Z2       0.048200
     38 H10         -2.2230    -5.2250     0.0750 hc         1 6Z2       0.048200
     39 H11         -0.4810    -5.1980    -0.2530 hc         1 6Z2       0.048200
     40 H12         -1.1160    -4.4670     1.2290 hc         1 6Z2       0.048200
     41 H13         -3.8120    -0.3750     1.1410 h1         1 6Z2       0.083700
     42 H14         -3.7180     0.5130    -1.2360 ha         1 6Z2       0.120000
     43 H15         -3.4930     2.6420    -2.5000 ha         1 6Z2       0.132500
     44 H16         -1.1810     4.3290     0.7200 ha         1 6Z2       0.132500
     45 H17         -1.3860     2.2240     1.9980 ha         1 6Z2       0.120000
     46 H18         -2.6980    -1.0630     3.1840 hc         1 6Z2       0.050367
     47 H19         -1.3720     0.0810     2.9160 hc         1 6Z2       0.050367
     48 H20         -3.0220     0.6800     3.2200 hc         1 6Z2       0.050367
@<TRIPOS>BOND
     1     1     8 ar  
     2     1    11 ar  
     3     1    29 1   
     4     2     6 1   
     5     2    16 1   
     6     2    19 2   
     7     3     4 ar  
     8     3     5 ar  
     9     3    12 1   
    10     4    15 ar  
    11     4    30 1   
    12     5    13 ar  
    13     5    31 1   
    14     6    11 1   
    15     6    17 1   
    16     6    18 1   
    17     7     9 ar  
    18     7    10 ar  
    19     8     9 ar  
    20     9    12 1   
    21    10    11 ar  
    22    10    16 1   
    23    12    32 1   
    24    13    14 ar  
    25    14    15 ar  
    26    14    33 1   
    27    15    34 1   
    28    16    20 1   
    29    17    35 1   
    30    17    36 1   
    31    17    37 1   
    32    18    38 1   
    33    18    39 1   
    34    18    40 1   
    35    20    21 1   
    36    20    27 1   
    37    20    41 1   
    38    21    22 ar  
    39    21    26 ar  
    40    22    23 ar  
    41    22    42 1   
    42    23    24 ar  
    43    23    43 1   
    44    24    25 ar  
    45    24    28 1   
    46    25    26 ar  
    47    25    44 1   
    48    26    45 1   
    49    27    46 1   
    50    27    47 1   
    51    27    48 1   
@<TRIPOS>SUBSTRUCTURE
     1 6Z2         1 TEMP              0 ****  ****    0 ROOT
