@<TRIPOS>MOLECULE
6Z3
   70    73     1     0     0
SMALL
abcg2


@<TRIPOS>ATOM
      1 CAP         -8.8130     0.2530    -0.4160 cx         1 6Z3      -0.069400
      2 CAQ         -8.5050     0.4680     1.0080 cx         1 6Z3      -0.069400
      3 CBK         -7.4110     0.6950    -0.0220 cx         1 6Z3      -0.200900
      4 CAJ         -7.0680     2.0570    -0.3020 c1         1 6Z3       0.327900
      5 NAE         -6.7810     3.1510    -0.5250 n1         1 6Z3      -0.443000
      6 CAZ         -6.3230    -0.3440    -0.1130 c          1 6Z3       0.653100
      7 OAG         -6.5790    -1.5100     0.1360 o          1 6Z3      -0.615100
      8 NAW         -5.1190     0.1050    -0.4890 ns         1 6Z3      -0.484900
      9 CBH         -3.9480    -0.7330    -0.6250 c3         1 6Z3       0.047700
     10 CBJ         -3.5690    -0.9690    -2.1180 c3         1 6Z3      -0.045000
     11 CAD         -3.2500     0.3380    -2.8440 c3         1 6Z3      -0.090433
     12 CAB         -2.3610    -1.9030    -2.1990 c3         1 6Z3      -0.090433
     13 CAC         -4.7550    -1.6490    -2.8080 c3         1 6Z3      -0.090433
     14 CBA         -2.8350    -0.0520     0.1670 c          1 6Z3       0.602100
     15 OAH         -2.7230     1.1690     0.1330 o          1 6Z3      -0.612100
     16 N           -1.9940    -0.8030     0.8910 n          1 6Z3      -0.386800
     17 CD2         -2.0600    -2.2300     1.1810 c5         1 6Z3       0.070000
     18 CG          -1.2810    -2.3480     2.4870 c5         1 6Z3       0.153300
     19 OD1         -2.0450    -1.9480     3.6000 oh         1 6Z3      -0.653000
     20 CB          -0.1820    -1.3190     2.2850 c5         1 6Z3      -0.084400
     21 CA          -0.9050    -0.1520     1.5980 c5         1 6Z3       0.030700
     22 C            0.0310     0.5670     0.6380 c          1 6Z3       0.603100
     23 O            0.2820     0.1320    -0.4720 o          1 6Z3      -0.588100
     24 NAV          0.6150     1.6620     1.1450 ns         1 6Z3      -0.501900
     25 CAR          1.6530     2.3670     0.4340 c3         1 6Z3       0.153300
     26 CBC          2.9380     1.5850     0.3090 ca         1 6Z3      -0.088300
     27 CAK          3.3870     0.7590     1.3360 ca         1 6Z3      -0.099000
     28 CAM          4.5820     0.0700     1.2220 ca         1 6Z3      -0.093500
     29 CAL          3.7200     1.7020    -0.8340 ca         1 6Z3      -0.099000
     30 CAN          4.9170     1.0140    -0.9550 ca         1 6Z3      -0.093500
     31 CBD          5.3690     0.1890     0.0740 ca         1 6Z3      -0.009000
     32 CBE          6.6280    -0.5490    -0.0530 cc         1 6Z3      -0.180000
     33 SAX          6.7150    -2.2260     0.3530 ss         1 6Z3      -0.035400
     34 CAO          8.3750    -2.2240    -0.0670 cc         1 6Z3       0.413300
     35 NAU          8.8300    -1.0860    -0.4750 nd         1 6Z3      -0.637000
     36 CBB          7.8580    -0.1210    -0.4740 cd         1 6Z3       0.300300
     37 CAA          8.2200     1.2670    -0.8840 c3         1 6Z3      -0.121400
     38 H1          -8.8910    -0.7590    -0.7880 hc         1 6Z3       0.091700
     39 H2          -9.4180     0.9840    -0.9350 hc         1 6Z3       0.091700
     40 H3          -8.8940     1.3510     1.4970 hc         1 6Z3       0.091700
     41 H4          -8.3670    -0.3910     1.6490 hc         1 6Z3       0.091700
     42 H5          -4.9620     1.0950    -0.6000 hn         1 6Z3       0.344500
     43 H6          -4.1920    -1.7050    -0.1950 h1         1 6Z3       0.083700
     44 H7          -2.3550     0.8230    -2.4530 hc         1 6Z3       0.041367
     45 H8          -3.0760     0.1340    -3.9020 hc         1 6Z3       0.041367
     46 H9          -4.0750     1.0490    -2.7890 hc         1 6Z3       0.041367
     47 H10         -2.5630    -2.8590    -1.7110 hc         1 6Z3       0.041367
     48 H11         -2.1300    -2.1180    -3.2440 hc         1 6Z3       0.041367
     49 H12         -1.4670    -1.4690    -1.7520 hc         1 6Z3       0.041367
     50 H13         -5.6300    -1.0010    -2.8570 hc         1 6Z3       0.041367
     51 H14         -4.4840    -1.9070    -3.8330 hc         1 6Z3       0.041367
     52 H15         -5.0400    -2.5700    -2.2980 hc         1 6Z3       0.041367
     53 H16         -3.0870    -2.5820     1.2820 h1         1 6Z3       0.061200
     54 H17         -1.5720    -2.8190     0.4020 h1         1 6Z3       0.061200
     55 H18         -0.8800    -3.3600     2.6100 h1         1 6Z3       0.053700
     56 H19         -2.7720    -2.5690     3.7130 ho         1 6Z3       0.448000
     57 H20          0.3000    -1.0220     3.2150 hc         1 6Z3       0.072200
     58 H21          0.5820    -1.7380     1.6260 hc         1 6Z3       0.072200
     59 H22         -1.3020     0.5470     2.3400 h1         1 6Z3       0.079700
     60 H23          0.3610     1.9800     2.0660 hn         1 6Z3       0.320500
     61 H24          1.3000     2.6510    -0.5600 h1         1 6Z3       0.061200
     62 H25          1.8400     3.2950     0.9760 h1         1 6Z3       0.061200
     63 H26          2.7990     0.6490     2.2390 ha         1 6Z3       0.113000
     64 H27          4.9130    -0.5560     2.0420 ha         1 6Z3       0.118000
     65 H28          3.3840     2.3270    -1.6540 ha         1 6Z3       0.113000
     66 H29          5.4900     1.0970    -1.8700 ha         1 6Z3       0.118000
     67 H30          8.9720    -3.1220     0.0140 h5         1 6Z3       0.052100
     68 H31          8.3190     1.3490    -1.9680 hc         1 6Z3       0.051700
     69 H32          7.4730     1.9900    -0.5640 hc         1 6Z3       0.051700
     70 H33          9.1780     1.5500    -0.4480 hc         1 6Z3       0.051700
@<TRIPOS>BOND
     1     1     2 1   
     2     1     3 1   
     3     1    38 1   
     4     1    39 1   
     5     2     3 1   
     6     2    40 1   
     7     2    41 1   
     8     3     4 1   
     9     3     6 1   
    10     4     5 3   
    11     6     7 2   
    12     6     8 1   
    13     8     9 1   
    14     8    42 1   
    15     9    10 1   
    16     9    14 1   
    17     9    43 1   
    18    10    11 1   
    19    10    12 1   
    20    10    13 1   
    21    11    44 1   
    22    11    45 1   
    23    11    46 1   
    24    12    47 1   
    25    12    48 1   
    26    12    49 1   
    27    13    50 1   
    28    13    51 1   
    29    13    52 1   
    30    14    15 2   
    31    14    16 1   
    32    16    17 1   
    33    16    21 1   
    34    17    18 1   
    35    17    53 1   
    36    17    54 1   
    37    18    19 1   
    38    18    20 1   
    39    18    55 1   
    40    19    56 1   
    41    20    21 1   
    42    20    57 1   
    43    20    58 1   
    44    21    22 1   
    45    21    59 1   
    46    22    23 2   
    47    22    24 1   
    48    24    25 1   
    49    24    60 1   
    50    25    26 1   
    51    25    61 1   
    52    25    62 1   
    53    26    27 ar  
    54    26    29 ar  
    55    27    28 ar  
    56    27    63 1   
    57    28    31 ar  
    58    28    64 1   
    59    29    30 ar  
    60    29    65 1   
    61    30    31 ar  
    62    30    66 1   
    63    31    32 1   
    64    32    33 1   
    65    32    36 2   
    66    33    34 1   
    67    34    35 2   
    68    34    67 1   
    69    35    36 1   
    70    36    37 1   
    71    37    68 1   
    72    37    69 1   
    73    37    70 1   
@<TRIPOS>SUBSTRUCTURE
     1 6Z3         1 TEMP              0 ****  ****    0 ROOT
