@<TRIPOS>MOLECULE
6Z3
   70    73     1     0     0
SMALL
No Charge or Current Charge


@<TRIPOS>ATOM
      1 CAP         -8.7300     0.5200     0.8070 cx         1 6Z3      -0.069400
      2 CAQ         -7.6940     1.6210     0.7680 cx         1 6Z3      -0.069400
      3 CBK         -7.7650     0.6070    -0.3600 cx         1 6Z3      -0.200900
      4 CAJ         -8.2420     0.9930    -1.6670 c1         1 6Z3       0.327900
      5 NAE         -8.6340     1.3410    -2.7060 n1         1 6Z3      -0.443000
      6 CAZ         -6.6870    -0.4320    -0.5010 c          1 6Z3       0.653100
      7 OAG         -6.9210    -1.6320    -0.4970 o          1 6Z3      -0.615100
      8 NAW         -5.4180     0.0810    -0.6270 ns         1 6Z3      -0.484900
      9 CBH         -4.1780    -0.7160    -0.7970 c3         1 6Z3       0.047700
     10 CBJ         -3.7250    -0.7720    -2.3090 c3         1 6Z3      -0.045000
     11 CAD         -3.3370     0.6430    -2.8240 c3         1 6Z3      -0.090433
     12 CAB         -2.5060    -1.7150    -2.4980 c3         1 6Z3      -0.090433
     13 CAC         -4.8780    -1.3180    -3.1980 c3         1 6Z3      -0.090433
     14 CBA         -3.0900    -0.1460     0.1790 c          1 6Z3       0.602100
     15 OAH         -3.0840     1.0410     0.4930 o          1 6Z3      -0.612100
     16 N           -2.0810    -1.0050     0.6720 n          1 6Z3      -0.386800
     17 CD2         -2.3020    -2.4560     0.9080 c5         1 6Z3       0.070000
     18 CG          -1.2300    -2.8150     1.9840 c5         1 6Z3       0.153300
     19 OD1         -1.7130    -2.6330     3.3190 oh         1 6Z3      -0.653000
     20 CB          -0.1080    -1.8020     1.6510 c5         1 6Z3      -0.084400
     21 CA          -0.9070    -0.4850     1.4250 c5         1 6Z3       0.030700
     22 C           -0.0030     0.5170     0.6420 c          1 6Z3       0.603100
     23 O            0.0300     0.7040    -0.5680 o          1 6Z3      -0.588100
     24 NAV          0.7940     1.2030     1.5350 ns         1 6Z3      -0.501900
     25 CAR          1.8110     2.1810     1.1510 c3         1 6Z3       0.153300
     26 CBC          3.1670     1.5170     0.9640 ca         1 6Z3      -0.088300
     27 CAK          4.0480     1.3800     2.0540 ca         1 6Z3      -0.099000
     28 CAM          5.2960     0.7580     1.8830 ca         1 6Z3      -0.093500
     29 CAL          3.5470     1.0180    -0.2950 ca         1 6Z3      -0.099000
     30 CAN          4.7960     0.3960    -0.4650 ca         1 6Z3      -0.093500
     31 CBD          5.6840     0.2710     0.6210 ca         1 6Z3      -0.009000
     32 CBE          6.9810    -0.3840     0.4620 cc         1 6Z3      -0.180000
     33 SAX          7.5850    -1.6460     1.4910 ss         1 6Z3      -0.035400
     34 CAO          9.0360    -1.6170     0.5200 cc         1 6Z3       0.413300
     35 NAU          9.0820    -0.7190    -0.4610 nd         1 6Z3      -0.637000
     36 CBB          7.9000     0.0070    -0.4930 cd         1 6Z3       0.300300
     37 CAA          7.7530     1.1130    -1.5060 c3         1 6Z3      -0.121400
     38 H1          -8.5900    -0.2800     1.5310 hc         1 6Z3       0.091700
     39 H2          -9.7690     0.8000     0.6420 hc         1 6Z3       0.091700
     40 H3          -8.0420     2.6340     0.5760 hc         1 6Z3       0.091700
     41 H4          -6.8680     1.5550     1.4740 hc         1 6Z3       0.091700
     42 H5          -5.3320     1.0900    -0.5750 hn         1 6Z3       0.344500
     43 H6          -4.3940    -1.7410    -0.4740 h1         1 6Z3       0.083700
     44 H7          -2.4840     1.0510    -2.2690 hc         1 6Z3       0.041367
     45 H8          -3.0530     0.6080    -3.8830 hc         1 6Z3       0.041367
     46 H9          -4.1720     1.3470    -2.7280 hc         1 6Z3       0.041367
     47 H10         -2.7420    -2.7320    -2.1640 hc         1 6Z3       0.041367
     48 H11         -2.2190    -1.7740    -3.5550 hc         1 6Z3       0.041367
     49 H12         -1.6280    -1.3600    -1.9460 hc         1 6Z3       0.041367
     50 H13         -5.7380    -0.6380    -3.2090 hc         1 6Z3       0.041367
     51 H14         -4.5490    -1.4400    -4.2380 hc         1 6Z3       0.041367
     52 H15         -5.2210    -2.2960    -2.8380 hc         1 6Z3       0.041367
     53 H16         -3.3190    -2.6700     1.2630 h1         1 6Z3       0.061200
     54 H17         -2.1300    -3.0310    -0.0100 h1         1 6Z3       0.061200
     55 H18         -0.8770    -3.8490     1.8560 h1         1 6Z3       0.053700
     56 H19         -2.3540    -3.3570     3.4960 ho         1 6Z3       0.448000
     57 H20          0.6360    -1.7150     2.4510 hc         1 6Z3       0.072200
     58 H21          0.4290    -2.1050     0.7430 hc         1 6Z3       0.072200
     59 H22         -1.2260    -0.0300     2.3720 h1         1 6Z3       0.079700
     60 H23          0.6930     0.9740     2.5160 hn         1 6Z3       0.320500
     61 H24          1.5090     2.6860     0.2240 h1         1 6Z3       0.061200
     62 H25          1.8780     2.9450     1.9360 h1         1 6Z3       0.061200
     63 H26          3.7640     1.7530     3.0360 ha         1 6Z3       0.113000
     64 H27          5.9670     0.6590     2.7330 ha         1 6Z3       0.118000
     65 H28          2.8710     1.1040    -1.1430 ha         1 6Z3       0.113000
     66 H29          5.0660     0.0000    -1.4410 ha         1 6Z3       0.118000
     67 H30          9.8350    -2.3090     0.7540 h5         1 6Z3       0.052100
     68 H31          7.2180     0.7600    -2.3940 hc         1 6Z3       0.051700
     69 H32          7.2010     1.9620    -1.0890 hc         1 6Z3       0.051700
     70 H33          8.7310     1.4850    -1.8320 hc         1 6Z3       0.051700
@<TRIPOS>BOND
     1     1     2 1   
     2     1     3 1   
     3     1    38 1   
     4     1    39 1   
     5     2     3 1   
     6     2    40 1   
     7     2    41 1   
     8     3     4 1   
     9     3     6 1   
    10     4     5 3   
    11     6     7 2   
    12     6     8 1   
    13     8     9 1   
    14     8    42 1   
    15     9    10 1   
    16     9    14 1   
    17     9    43 1   
    18    10    11 1   
    19    10    12 1   
    20    10    13 1   
    21    11    44 1   
    22    11    45 1   
    23    11    46 1   
    24    12    47 1   
    25    12    48 1   
    26    12    49 1   
    27    13    50 1   
    28    13    51 1   
    29    13    52 1   
    30    14    15 2   
    31    14    16 1   
    32    16    17 1   
    33    16    21 1   
    34    17    18 1   
    35    17    53 1   
    36    17    54 1   
    37    18    19 1   
    38    18    20 1   
    39    18    55 1   
    40    19    56 1   
    41    20    21 1   
    42    20    57 1   
    43    20    58 1   
    44    21    22 1   
    45    21    59 1   
    46    22    23 2   
    47    22    24 1   
    48    24    25 1   
    49    24    60 1   
    50    25    26 1   
    51    25    61 1   
    52    25    62 1   
    53    26    27 ar  
    54    26    29 ar  
    55    27    28 ar  
    56    27    63 1   
    57    28    31 ar  
    58    28    64 1   
    59    29    30 ar  
    60    29    65 1   
    61    30    31 ar  
    62    30    66 1   
    63    31    32 1   
    64    32    33 1   
    65    32    36 2   
    66    33    34 1   
    67    34    35 2   
    68    34    67 1   
    69    35    36 1   
    70    36    37 1   
    71    37    68 1   
    72    37    69 1   
    73    37    70 1   
@<TRIPOS>SUBSTRUCTURE
     1 6Z3         1 TEMP              0 ****  ****    0 ROOT
