@<TRIPOS>MOLECULE
6Z4
   65    69     1     0     0
SMALL
bcc


@<TRIPOS>ATOM
      1 C1           0.0630     1.4520     1.2920 ca         1 6Z4       0.962900
      2 C2           1.7240     0.2540     0.2740 ca         1 6Z4       0.779200
      3 C12          0.7750    -0.2660    -0.6270 ca         1 6Z4      -0.515600
      4 C13         -0.5210     0.1760    -0.4500 ca         1 6Z4       0.724600
      5 C14         -2.7860     0.0760    -1.1300 c3         1 6Z4       0.146400
      6 C22         -4.9810     1.4040     0.4430 cp         1 6Z4      -0.055000
      7 C23         -4.1560     2.5190     0.5770 ca         1 6Z4      -0.111500
      8 C25         -5.9700     3.9670    -0.0580 ca         1 6Z4      -0.123000
      9 C26         -6.7990     2.8620    -0.1900 ca         1 6Z4      -0.132500
     10 N1          -0.2930     2.3470     2.2400 nv         1 6Z4      -0.946500
     11 N2           1.3380     1.1030     1.2370 nb         1 6Z4      -0.868000
     12 N3           3.0390    -0.0600     0.2220 nh         1 6Z4      -0.755300
     13 CE1          3.9240     0.2390     1.3400 c6         1 6Z4       0.216800
     14 CD1          5.3130     0.6410     0.8710 c6         1 6Z4      -0.076400
     15 CG           5.9380    -0.3590    -0.1030 c5         1 6Z4      -0.061000
     16 CD2          4.9390    -0.5860    -1.2320 c6         1 6Z4      -0.076400
     17 CE2          3.5700    -1.0200    -0.7290 c6         1 6Z4       0.216800
     18 C8           6.3270    -1.6720     0.6090 c5         1 6Z4       0.154800
     19 N            7.6920    -1.4290     1.0260 n7         1 6Z4      -0.778200
     20 CA           8.3330    -0.8750    -0.1520 c5         1 6Z4       0.032500
     21 C            9.7370    -0.3080     0.0810 c          1 6Z4       0.937600
     22 O           10.2960    -0.5540     1.1660 o          1 6Z4      -0.832300
     23 O2          10.2140     0.3430    -0.8730 o          1 6Z4      -0.832300
     24 CB           7.3020     0.1590    -0.6230 c5         1 6Z4      -0.045400
     25 OH          -1.4430    -0.3180    -1.2940 os         1 6Z4      -0.434100
     26 C15         -3.4590    -0.3450    -2.4320 c3         1 6Z4       0.668900
     27 F1          -3.3740    -1.6610    -2.6460 f          1 6Z4      -0.229967
     28 F2          -4.7550    -0.0240    -2.4110 f          1 6Z4      -0.229967
     29 F3          -2.9090     0.2640    -3.4860 f          1 6Z4      -0.229967
     30 C16         -3.4480    -0.5840     0.0570 ca         1 6Z4      -0.095300
     31 C17         -3.0490    -1.8640     0.4280 ca         1 6Z4      -0.087000
     32 C18         -3.6490    -2.5310     1.4830 ca         1 6Z4      -0.125000
     33 C19         -4.6780    -1.9060     2.1640 ca         1 6Z4       0.037400
     34 CL1         -5.4470    -2.7180     3.4860 cl         1 6Z4      -0.115400
     35 C20         -5.0980    -0.6360     1.8120 ca         1 6Z4      -0.124000
     36 C21         -4.4850     0.0410     0.7590 cp         1 6Z4       0.007000
     37 C24         -4.6480     3.7930     0.3270 ca         1 6Z4      -0.132500
     38 C27         -6.3080     1.5880     0.0600 ca         1 6Z4      -0.111500
     39 N5          -0.9110     1.0260     0.4770 nb         1 6Z4      -0.898000
     40 H1           1.0000    -0.9790    -1.4040 ha         1 6Z4       0.164000
     41 H2          -2.8670     1.1640    -1.0620 h1         1 6Z4       0.107700
     42 H3          -3.1240     2.3860     0.8740 ha         1 6Z4       0.145500
     43 H4          -6.3530     4.9610    -0.2530 ha         1 6Z4       0.128000
     44 H5          -7.8310     2.9890    -0.4900 ha         1 6Z4       0.131500
     45 H6          -1.2660     2.4180     2.4820 hn         1 6Z4       0.429300
     46 H7           0.3600     2.5270     2.9820 hn         1 6Z4       0.429300
     47 H8           3.4850     1.0380     1.9290 h1         1 6Z4       0.046450
     48 H9           3.9830    -0.6390     1.9960 h1         1 6Z4       0.046450
     49 H10          5.2530     1.6200     0.3840 hc         1 6Z4       0.054700
     50 H11          5.9550     0.7610     1.7470 hc         1 6Z4       0.054700
     51 H12          4.8250     0.3390    -1.8070 hc         1 6Z4       0.054700
     52 H13          5.3140    -1.3430    -1.9260 hc         1 6Z4       0.054700
     53 H14          3.6280    -2.0140    -0.2670 h1         1 6Z4       0.046450
     54 H15          2.9040    -1.1080    -1.5820 h1         1 6Z4       0.046450
     55 H16          5.6900    -1.9160     1.4630 h1         1 6Z4       0.006700
     56 H17          6.2410    -2.5110    -0.1040 h1         1 6Z4       0.006700
     57 H18          8.1500    -2.2730     1.3420 hn         1 6Z4       0.358800
     58 H20          8.4250    -1.6380    -0.9490 h1         1 6Z4      -0.001300
     59 H22          7.3120     0.2730    -1.7080 hc         1 6Z4       0.046700
     60 H23          7.5210     1.1420    -0.1990 hc         1 6Z4       0.046700
     61 H24         -2.2490    -2.3640    -0.1020 ha         1 6Z4       0.155000
     62 H25         -3.3210    -3.5230     1.7600 ha         1 6Z4       0.150000
     63 H26         -5.8940    -0.1550     2.3650 ha         1 6Z4       0.149000
     64 H27         -3.9960     4.6500     0.4390 ha         1 6Z4       0.131500
     65 H28         -6.9600     0.7300    -0.0460 ha         1 6Z4       0.145500
@<TRIPOS>BOND
     1     1    10 1   
     2     1    11 ar  
     3     1    39 ar  
     4     2     3 ar  
     5     2    11 ar  
     6     2    12 1   
     7     3     4 ar  
     8     3    40 1   
     9     4    25 1   
    10     4    39 ar  
    11     5    25 1   
    12     5    26 1   
    13     5    30 1   
    14     5    41 1   
    15     6     7 ar  
    16     6    36 1   
    17     6    38 ar  
    18     7    37 ar  
    19     7    42 1   
    20     8     9 ar  
    21     8    37 ar  
    22     8    43 1   
    23     9    38 ar  
    24     9    44 1   
    25    10    45 1   
    26    10    46 1   
    27    12    13 1   
    28    12    17 1   
    29    13    14 1   
    30    13    47 1   
    31    13    48 1   
    32    14    15 1   
    33    14    49 1   
    34    14    50 1   
    35    15    16 1   
    36    15    18 1   
    37    15    24 1   
    38    16    17 1   
    39    16    51 1   
    40    16    52 1   
    41    17    53 1   
    42    17    54 1   
    43    18    19 1   
    44    18    55 1   
    45    18    56 1   
    46    19    20 1   
    47    19    57 1   
    48    20    21 1   
    49    20    24 1   
    50    20    58 1   
    51    21    22 1   
    52    21    23 1   
    53    24    59 1   
    54    24    60 1   
    55    26    27 1   
    56    26    28 1   
    57    26    29 1   
    58    30    31 ar  
    59    30    36 ar  
    60    31    32 ar  
    61    31    61 1   
    62    32    33 ar  
    63    32    62 1   
    64    33    34 1   
    65    33    35 ar  
    66    35    36 ar  
    67    35    63 1   
    68    37    64 1   
    69    38    65 1   
@<TRIPOS>SUBSTRUCTURE
     1 6Z4         1 TEMP              0 ****  ****    0 ROOT
