@<TRIPOS>MOLECULE
6Z4
   65    69     1     0     0
SMALL
No Charge or Current Charge


@<TRIPOS>ATOM
      1 C1           0.1660     1.8840     1.0270 ca         1 6Z4       0.436900
      2 C2           1.7740     0.6400     0.0140 ca         1 6Z4       0.450900
      3 C12          0.7830     0.0570    -0.7870 ca         1 6Z4      -0.367000
      4 C13         -0.5380     0.4660    -0.5970 ca         1 6Z4       0.396300
      5 C14         -2.9180     0.1010    -1.1730 c3         1 6Z4       0.169600
      6 C22         -5.0740     1.2890     0.6070 cp         1 6Z4      -0.055000
      7 C23         -4.4060     2.5360     0.6270 ca         1 6Z4      -0.093500
      8 C25         -6.4390     3.6800    -0.0670 ca         1 6Z4      -0.105000
      9 C26         -7.1230     2.4530    -0.0780 ca         1 6Z4      -0.114500
     10 N1          -0.1490     2.8110     1.9520 nv         1 6Z4      -1.056900
     11 N2           1.4560     1.5640     0.9360 nb         1 6Z4      -0.342000
     12 N3           3.1400     0.2940    -0.0980 nh         1 6Z4      -0.755300
     13 CE1          3.9730     0.0980     1.1270 c6         1 6Z4       0.216800
     14 CD1          5.4710     0.3850     0.8570 c6         1 6Z4      -0.076400
     15 CG           6.0450    -0.4640    -0.3240 c5         1 6Z4      -0.061000
     16 CD2          5.1500    -0.1290    -1.5530 c6         1 6Z4      -0.076400
     17 CE2          3.6510    -0.4260    -1.2980 c6         1 6Z4       0.216800
     18 C8           6.1300    -1.9910    -0.0190 c5         1 6Z4       0.154800
     19 N            7.2470    -2.0740     0.9380 n7         1 6Z4      -0.833400
     20 CA           8.3180    -1.1880     0.3550 c5         1 6Z4       0.032500
     21 C            9.2630    -0.4300     1.3920 c          1 6Z4       0.727000
     22 O            8.8680     0.5710     1.9800 o          1 6Z4      -0.727000
     23 O2          10.3920    -0.8690     1.5800 o          1 6Z4      -0.727000
     24 CB           7.5630    -0.1860    -0.5920 c5         1 6Z4      -0.045400
     25 OH          -1.4990    -0.1130    -1.3940 os         1 6Z4      -0.457300
     26 C15         -3.6990    -0.4670    -2.3940 c3         1 6Z4       0.305000
     27 F1          -3.4760    -1.7930    -2.5560 f          1 6Z4      -0.108667
     28 F2          -5.0320    -0.2890    -2.2450 f          1 6Z4      -0.108667
     29 F3          -3.3300     0.1570    -3.5370 f          1 6Z4      -0.108667
     30 C16         -3.3500    -0.5480     0.1570 ca         1 6Z4      -0.095300
     31 C17         -2.7510    -1.7670     0.5540 ca         1 6Z4      -0.069000
     32 C18         -3.1400    -2.4060     1.7420 ca         1 6Z4      -0.107000
     33 C19         -4.1420    -1.8440     2.5430 ca         1 6Z4       0.129000
     34 Cl1         -4.6370    -2.6480     4.0270 cl         1 6Z4      -0.207000
     35 C20         -4.7540    -0.6440     2.1580 ca         1 6Z4      -0.106000
     36 C21         -4.3710     0.0260     0.9720 cp         1 6Z4       0.007000
     37 C24         -5.0810     3.7220     0.2880 ca         1 6Z4      -0.114500
     38 C27         -6.4460     1.2680     0.2610 ca         1 6Z4      -0.093500
     39 N5          -0.8530     1.3990     0.3190 nb         1 6Z4      -0.372000
     40 H1           1.0100    -0.7010    -1.5260 ha         1 6Z4       0.146000
     41 H2          -3.1210     1.1780    -1.1470 h1         1 6Z4       0.107700
     42 H3          -3.3570     2.5800     0.9090 ha         1 6Z4       0.127500
     43 H4          -6.9620     4.5970    -0.3290 ha         1 6Z4       0.110000
     44 H5          -8.1760     2.4190    -0.3490 ha         1 6Z4       0.113500
     45 H6          -1.1220     2.8960     2.2260 hn         1 6Z4       0.484500
     46 H7           0.5470     3.0410     2.6550 hn         1 6Z4       0.484500
     47 H8           3.6470     0.7620     1.9400 h1         1 6Z4       0.046450
     48 H9           3.8570    -0.9320     1.4940 h1         1 6Z4       0.046450
     49 H10          5.5930     1.4540     0.6360 hc         1 6Z4       0.054700
     50 H11          6.0380     0.2040     1.7790 hc         1 6Z4       0.054700
     51 H12          5.2670     0.9310    -1.8190 hc         1 6Z4       0.054700
     52 H13          5.4850    -0.7020    -2.4280 hc         1 6Z4       0.054700
     53 H14          3.5050    -1.5100    -1.1790 h1         1 6Z4       0.046450
     54 H15          3.0950    -0.1160    -2.1950 h1         1 6Z4       0.046450
     55 H16          5.2050    -2.4010     0.4060 h1         1 6Z4       0.006700
     56 H17          6.3670    -2.5630    -0.9280 h1         1 6Z4       0.006700
     57 H18          7.5810    -3.0410     1.0350 hn         1 6Z4       0.414000
     58 H20          8.9690    -1.8140    -0.2710 h1         1 6Z4      -0.001300
     59 H22          7.8240    -0.3990    -1.6350 hc         1 6Z4       0.046700
     60 H23          7.8310     0.8620    -0.4230 hc         1 6Z4       0.046700
     61 H24         -1.9830    -2.2280    -0.0620 ha         1 6Z4       0.137000
     62 H25         -2.6700    -3.3410     2.0370 ha         1 6Z4       0.132000
     63 H26         -5.5340    -0.2200     2.7840 ha         1 6Z4       0.131000
     64 H27         -4.5510     4.6720     0.3040 ha         1 6Z4       0.113500
     65 H28         -6.9830     0.3220     0.2480 ha         1 6Z4       0.127500
@<TRIPOS>BOND
     1     1    10 1   
     2     1    11 ar  
     3     1    39 ar  
     4     2     3 ar  
     5     2    11 ar  
     6     2    12 1   
     7     3     4 ar  
     8     3    40 1   
     9     4    25 1   
    10     4    39 ar  
    11     5    25 1   
    12     5    26 1   
    13     5    30 1   
    14     5    41 1   
    15     6     7 ar  
    16     6    36 1   
    17     6    38 ar  
    18     7    37 ar  
    19     7    42 1   
    20     8     9 ar  
    21     8    37 ar  
    22     8    43 1   
    23     9    38 ar  
    24     9    44 1   
    25    10    45 1   
    26    10    46 1   
    27    12    13 1   
    28    12    17 1   
    29    13    14 1   
    30    13    47 1   
    31    13    48 1   
    32    14    15 1   
    33    14    49 1   
    34    14    50 1   
    35    15    16 1   
    36    15    18 1   
    37    15    24 1   
    38    16    17 1   
    39    16    51 1   
    40    16    52 1   
    41    17    53 1   
    42    17    54 1   
    43    18    19 1   
    44    18    55 1   
    45    18    56 1   
    46    19    20 1   
    47    19    57 1   
    48    20    21 1   
    49    20    24 1   
    50    20    58 1   
    51    21    22 1   
    52    21    23 1   
    53    24    59 1   
    54    24    60 1   
    55    26    27 1   
    56    26    28 1   
    57    26    29 1   
    58    30    31 ar  
    59    30    36 ar  
    60    31    32 ar  
    61    31    61 1   
    62    32    33 ar  
    63    32    62 1   
    64    33    34 1   
    65    33    35 ar  
    66    35    36 ar  
    67    35    63 1   
    68    37    64 1   
    69    38    65 1   
@<TRIPOS>SUBSTRUCTURE
     1 6Z4         1 TEMP              0 ****  ****    0 ROOT
