@<TRIPOS>MOLECULE
6Z5
   49    53     1     0     0
SMALL
abcg2


@<TRIPOS>ATOM
      1 C2          44.9770    32.2580    35.4940 ca         1 6Z5       0.407900
      2 C7          48.2050    31.9810    33.6960 ca         1 6Z5      -0.147500
      3 C9          48.1220    32.0600    31.2870 ca         1 6Z5      -0.137000
      4 C10         46.7350    32.1160    31.3550 ca         1 6Z5      -0.086500
      5 C11         46.0700    32.1060    32.5770 ca         1 6Z5      -0.147500
      6 C13         40.6320    33.3770    35.3320 c          1 6Z5       0.567000
      7 C15         40.9010    34.2930    37.6550 c3         1 6Z5      -0.072600
      8 C18         42.4450    34.5200    32.4270 c2         1 6Z5      -0.220200
      9 C20         42.7850    32.6470    31.1400 ca         1 6Z5      -0.151800
     10 C21         41.9660    32.2110    32.1940 ca         1 6Z5      -0.063300
     11 C22         43.2060    31.7320    30.1770 ca         1 6Z5       0.156100
     12 C           42.5510    32.7310    36.5290 ca         1 6Z5      -0.301300
     13 C1          43.6030    32.3560    37.3300 ca         1 6Z5       0.195900
     14 N           44.8220    32.1180    36.8220 nb         1 6Z5      -0.271000
     15 N3          44.0190    32.6230    34.6180 nb         1 6Z5      -0.234000
     16 C4          42.8440    32.8460    35.1690 ca         1 6Z5       0.276900
     17 N5          46.2420    32.0060    35.0450 nu         1 6Z5      -0.925900
     18 C6          46.8050    32.0430    33.7660 ca         1 6Z5       0.310000
     19 C8          48.8530    31.9890    32.4710 ca         1 6Z5      -0.086500
     20 N12         41.7090    33.2320    34.4690 n          1 6Z5      -0.384300
     21 C14         41.1000    33.0570    36.7650 c5         1 6Z5      -0.048700
     22 C16         40.3000    31.8600    37.3010 c3         1 6Z5      -0.072600
     23 O           39.5140    33.7010    34.9880 o          1 6Z5      -0.507000
     24 C17         41.6040    33.4170    33.0330 c5         1 6Z5       0.184200
     25 C19         43.0590    34.0760    31.3210 ce         1 6Z5      -0.147200
     26 C23         42.8380    30.3920    30.3140 ca         1 6Z5      -0.137000
     27 C24         42.0500    29.9780    31.3820 ca         1 6Z5      -0.073000
     28 C25         41.5920    30.8910    32.3370 ca         1 6Z5      -0.113000
     29 H1          48.7790    31.9300    34.6140 ha         1 6Z5       0.132000
     30 H2          48.6270    32.0690    30.3300 ha         1 6Z5       0.115000
     31 H3          46.1510    32.1630    30.4450 ha         1 6Z5       0.113500
     32 H4          44.9950    32.1490    32.6110 ha         1 6Z5       0.132000
     33 H5          41.2550    34.0750    38.6630 hc         1 6Z5       0.048200
     34 H6          41.4580    35.1480    37.2690 hc         1 6Z5       0.048200
     35 H7          39.8440    34.5540    37.7040 hc         1 6Z5       0.048200
     36 H8          42.4630    35.5240    32.8240 ha         1 6Z5       0.203000
     37 H9          43.4930    32.2360    38.4020 h4         1 6Z5       0.027100
     38 H10         46.8870    31.8070    35.7960 hn         1 6Z5       0.511000
     39 H11         49.9350    31.9430    32.4430 ha         1 6Z5       0.113500
     40 H12         40.6470    31.6110    38.3050 hc         1 6Z5       0.048200
     41 H13         39.2390    32.1100    37.3490 hc         1 6Z5       0.048200
     42 H14         40.4280    30.9850    36.6620 hc         1 6Z5       0.048200
     43 H15         40.5480    33.6590    32.8680 h1         1 6Z5       0.106700
     44 H16         43.6760    34.6770    30.6660 ha         1 6Z5       0.190000
     45 H17         43.1810    29.6800    29.5740 ha         1 6Z5       0.130000
     46 H18         41.7860    28.9320    31.4680 ha         1 6Z5       0.118000
     47 H19         40.9720    30.5700    33.1640 ha         1 6Z5       0.122000
     48 H20         44.1510    33.0200    29.0930 ho         1 6Z5       0.466000
     49 O26         43.9780    32.0700    29.1020 oh         1 6Z5      -0.540100
@<TRIPOS>BOND
     1     1    14 ar  
     2     1    15 ar  
     3     1    17 1   
     4     2    18 ar  
     5     2    19 ar  
     6     2    29 1   
     7     3     4 ar  
     8     3    19 ar  
     9     3    30 1   
    10     4     5 ar  
    11     4    31 1   
    12     5    18 ar  
    13     5    32 1   
    14     6    20 1   
    15     6    21 1   
    16     6    23 2   
    17     7    21 1   
    18     7    33 1   
    19     7    34 1   
    20     7    35 1   
    21     8    24 1   
    22     8    25 2   
    23     8    36 1   
    24     9    10 ar  
    25     9    11 ar  
    26     9    25 1   
    27    10    24 1   
    28    10    28 ar  
    29    11    26 ar  
    30    11    49 1   
    31    12    13 ar  
    32    12    16 ar  
    33    12    21 1   
    34    13    14 ar  
    35    13    37 1   
    36    15    16 ar  
    37    16    20 1   
    38    17    18 1   
    39    17    38 1   
    40    19    39 1   
    41    20    24 1   
    42    21    22 1   
    43    22    40 1   
    44    22    41 1   
    45    22    42 1   
    46    24    43 1   
    47    25    44 1   
    48    26    27 ar  
    49    26    45 1   
    50    27    28 ar  
    51    27    46 1   
    52    28    47 1   
    53    48    49 1   
@<TRIPOS>SUBSTRUCTURE
     1 6Z5         1 TEMP              0 ****  ****    0 ROOT
