@<TRIPOS>MOLECULE
6Z5
   49    53     1     0     0
SMALL
No Charge or Current Charge


@<TRIPOS>ATOM
      1 C2          44.9510    32.4410    35.4000 ca         1 6Z5       0.407900
      2 C7          48.1470    32.3550    33.4470 ca         1 6Z5      -0.147500
      3 C9          48.0350    31.4010    31.2130 ca         1 6Z5      -0.137000
      4 C10         46.6970    31.0380    31.4400 ca         1 6Z5      -0.086500
      5 C11         46.0820    31.3460    32.6670 ca         1 6Z5      -0.147500
      6 C13         40.4650    33.3340    35.3410 c          1 6Z5       0.567000
      7 C15         40.8650    34.1850    37.7310 c3         1 6Z5      -0.072600
      8 C18         42.2450    34.7190    32.5740 c2         1 6Z5      -0.220200
      9 C20         42.8810    32.8740    31.2940 ca         1 6Z5      -0.151800
     10 C21         41.9040    32.4060    32.1550 ca         1 6Z5      -0.063300
     11 C22         43.5020    32.0350    30.3570 ca         1 6Z5       0.156100
     12 C           42.5240    32.7630    36.4340 ca         1 6Z5      -0.301300
     13 C1          43.6040    32.4510    37.2680 ca         1 6Z5       0.195900
     14 N           44.8360    32.2970    36.7390 nb         1 6Z5      -0.271000
     15 N3          43.9690    32.7570    34.5260 nb         1 6Z5      -0.234000
     16 C4          42.7590    32.9130    35.0880 ca         1 6Z5       0.276900
     17 N5          46.2460    32.2840    34.9280 nu         1 6Z5      -0.925900
     18 C6          46.8030    32.0120    33.6760 ca         1 6Z5       0.310000
     19 C8          48.7620    32.0600    32.2170 ca         1 6Z5      -0.086500
     20 N12         41.5480    33.2560    34.4430 n          1 6Z5      -0.384300
     21 C14         41.0620    32.9960    36.7600 c5         1 6Z5      -0.048700
     22 C16         40.3910    31.7280    37.3430 c3         1 6Z5      -0.072600
     23 O           39.3110    33.6150    35.0410 o          1 6Z5      -0.507000
     24 C17         41.3440    33.5420    33.0010 c5         1 6Z5       0.184200
     25 C19         43.0730    34.3000    31.5880 ce         1 6Z5      -0.147200
     26 C23         43.1250    30.6790    30.3240 ca         1 6Z5      -0.137000
     27 C24         42.1410    30.1890    31.2140 ca         1 6Z5      -0.073000
     28 C25         41.5160    31.0570    32.1330 ca         1 6Z5      -0.113000
     29 H1          48.7190    32.8580    34.2220 ha         1 6Z5       0.132000
     30 H2          48.5090    31.1650    30.2630 ha         1 6Z5       0.115000
     31 H3          46.1380    30.5150    30.6670 ha         1 6Z5       0.113500
     32 H4          45.0540    31.0440    32.8350 ha         1 6Z5       0.132000
     33 H5          41.3230    33.9830    38.7070 hc         1 6Z5       0.048200
     34 H6          41.3230    35.0980    37.3320 hc         1 6Z5       0.048200
     35 H7          39.8010    34.3930    37.8970 hc         1 6Z5       0.048200
     36 H8          42.2070    35.7310    32.9790 ha         1 6Z5       0.203000
     37 H9          43.4950    32.3290    38.3440 h4         1 6Z5       0.027100
     38 H10         46.9370    32.3770    35.6710 hn         1 6Z5       0.511000
     39 H11         49.8000    32.3350    32.0460 ha         1 6Z5       0.113500
     40 H12         40.8350    31.4490    38.3060 hc         1 6Z5       0.048200
     41 H13         39.3170    31.8820    37.5020 hc         1 6Z5       0.048200
     42 H14         40.5060    30.8750    36.6640 hc         1 6Z5       0.048200
     43 H15         40.2900    33.7260    32.7480 h1         1 6Z5       0.106700
     44 H16         43.8200    34.9120    31.0790 ha         1 6Z5       0.190000
     45 H17         43.5920    30.0070    29.6080 ha         1 6Z5       0.130000
     46 H18         41.8550    29.1400    31.1800 ha         1 6Z5       0.118000
     47 H19         40.7450    30.6920    32.8070 ha         1 6Z5       0.122000
     48 H20         44.5510    33.4690    29.6650 ho         1 6Z5       0.466000
     49 O26         44.4360    32.5130    29.4870 oh         1 6Z5      -0.540100
@<TRIPOS>BOND
     1     1    14 ar  
     2     1    15 ar  
     3     1    17 1   
     4     2    18 ar  
     5     2    19 ar  
     6     2    29 1   
     7     3     4 ar  
     8     3    19 ar  
     9     3    30 1   
    10     4     5 ar  
    11     4    31 1   
    12     5    18 ar  
    13     5    32 1   
    14     6    20 1   
    15     6    21 1   
    16     6    23 2   
    17     7    21 1   
    18     7    33 1   
    19     7    34 1   
    20     7    35 1   
    21     8    24 1   
    22     8    25 2   
    23     8    36 1   
    24     9    10 ar  
    25     9    11 ar  
    26     9    25 1   
    27    10    24 1   
    28    10    28 ar  
    29    11    26 ar  
    30    11    49 1   
    31    12    13 ar  
    32    12    16 ar  
    33    12    21 1   
    34    13    14 ar  
    35    13    37 1   
    36    15    16 ar  
    37    16    20 1   
    38    17    18 1   
    39    17    38 1   
    40    19    39 1   
    41    20    24 1   
    42    21    22 1   
    43    22    40 1   
    44    22    41 1   
    45    22    42 1   
    46    24    43 1   
    47    25    44 1   
    48    26    27 ar  
    49    26    45 1   
    50    27    28 ar  
    51    27    46 1   
    52    28    47 1   
    53    48    49 1   
@<TRIPOS>SUBSTRUCTURE
     1 6Z5         1 TEMP              0 ****  ****    0 ROOT
