@<TRIPOS>MOLECULE
6Z6
   54    58     1     0     0
SMALL
No Charge or Current Charge


@<TRIPOS>ATOM
      1 N1           4.7270     3.7110    -0.2840 n1         1 6Z6      -0.499000
      2 C2           3.8130    -1.4490     1.2520 ca         1 6Z6      -0.173500
      3 O2           0.2640     2.4280     0.9710 os         1 6Z6      -0.259200
      4 C4           3.0730     0.1360    -0.4490 ca         1 6Z6      -0.115300
      5 C5           4.0110    -0.4090    -1.3470 ca         1 6Z6      -0.055000
      6 C6           4.8460    -1.4680    -0.9490 ca         1 6Z6      -0.173500
      7 O1           0.7120    -0.5050    -2.7370 o          1 6Z6      -0.510100
      8 C9           0.2220    -0.2440    -1.6460 c          1 6Z6       0.587300
      9 C8           0.6940     0.8600    -0.7700 ce         1 6Z6      -0.267400
     10 C13         -0.1330     1.4110     0.1460 c2         1 6Z6       0.140900
     11 C14          1.4880     3.0000     0.8070 c2         1 6Z6       0.398100
     12 N            1.6040     4.0990     1.6280 nv         1 6Z6      -0.979000
     13 C15          2.4240     2.5380    -0.0450 ce         1 6Z6      -0.244900
     14 C16          3.6930     3.1760    -0.1990 cg         1 6Z6       0.316700
     15 C7           2.1570     1.2870    -0.8840 c6         1 6Z6       0.148000
     16 C3           2.9780    -0.3910     0.8550 ca         1 6Z6      -0.055000
     17 C1           4.7480    -1.9930     0.3580 ca         1 6Z6       0.141100
     18 O            5.5390    -3.0310     0.8050 os         1 6Z6      -0.344100
     19 C            6.5280    -3.6570    -0.0330 c3         1 6Z6       0.148900
     20 C10         -0.8430    -1.1220    -1.0020 c6         1 6Z6      -0.178400
     21 C11         -2.0330    -0.2080    -0.5920 c6         1 6Z6      -0.004400
     22 C12         -1.5470     0.8890     0.4070 c6         1 6Z6      -0.038200
     23 C17         -3.2800    -0.9540    -0.0470 ca         1 6Z6      -0.071300
     24 C18         -3.1220    -2.2170     0.5740 ca         1 6Z6      -0.100000
     25 C19         -4.2230    -2.9210     1.0790 ca         1 6Z6      -0.109000
     26 C20         -5.5080    -2.3780     0.9820 ca         1 6Z6      -0.091000
     27 C21         -5.6970    -1.1210     0.3850 ca         1 6Z6      -0.038000
     28 C26         -4.5920    -0.3940    -0.1310 ca         1 6Z6      -0.023000
     29 C22         -7.0010    -0.5940     0.3100 ca         1 6Z6      -0.096000
     30 C23         -7.2260     0.6610    -0.2730 ca         1 6Z6      -0.106000
     31 C24         -6.1460     1.3940    -0.7820 ca         1 6Z6      -0.102000
     32 C25         -4.8420     0.8750    -0.7130 ca         1 6Z6      -0.107000
     33 H1           3.7340    -1.8510     2.2590 ha         1 6Z6       0.119500
     34 H2           4.0940    -0.0140    -2.3580 ha         1 6Z6       0.111500
     35 H3           5.5580    -1.8650    -1.6660 ha         1 6Z6       0.119500
     36 H4           0.9320     4.1380     2.3890 hn         1 6Z6       0.511000
     37 H5           2.5490     4.3740     1.8830 hn         1 6Z6       0.511000
     38 H6           2.2580     0.0190     1.5600 ha         1 6Z6       0.111500
     39 H7           7.0410    -4.4560     0.5170 h1         1 6Z6       0.040033
     40 H8           6.0610    -4.1020    -0.9210 h1         1 6Z6       0.040033
     41 H9           7.2820    -2.9290    -0.3580 h1         1 6Z6       0.040033
     42 H10         -1.1300    -1.9410    -1.6740 hc         1 6Z6       0.077700
     43 H11         -0.4010    -1.5180    -0.0780 hc         1 6Z6       0.077700
     44 H12         -2.3230     0.2920    -1.5260 hc         1 6Z6       0.066700
     45 H13         -1.5660     0.4740     1.4240 hc         1 6Z6       0.075700
     46 H14         -2.2500     1.7320     0.4170 hc         1 6Z6       0.075700
     47 H15         -2.1420    -2.6720     0.6810 ha         1 6Z6       0.112000
     48 H16         -4.0780    -3.8910     1.5500 ha         1 6Z6       0.117000
     49 H17         -6.3560    -2.9330     1.3770 ha         1 6Z6       0.116000
     50 H18         -7.8440    -1.1570     0.7060 ha         1 6Z6       0.114000
     51 H19         -8.2350     1.0650    -0.3280 ha         1 6Z6       0.116000
     52 H20         -6.3180     2.3700    -1.2310 ha         1 6Z6       0.115000
     53 H21         -4.0430     1.4870    -1.1170 ha         1 6Z6       0.113000
     54 H22          2.3540     1.5370    -1.9380 hc         1 6Z6       0.079700
@<TRIPOS>BOND
     1     1    14 3   
     2     2    16 ar  
     3     2    17 ar  
     4     2    33 1   
     5     3    10 1   
     6     3    11 1   
     7     4     5 ar  
     8     4    15 1   
     9     4    16 ar  
    10     5     6 ar  
    11     5    34 1   
    12     6    17 ar  
    13     6    35 1   
    14     7     8 2   
    15     8     9 1   
    16     8    20 1   
    17     9    10 2   
    18     9    15 1   
    19    10    22 1   
    20    11    12 1   
    21    11    13 2   
    22    12    36 1   
    23    12    37 1   
    24    13    14 1   
    25    13    15 1   
    26    15    54 1   
    27    16    38 1   
    28    17    18 1   
    29    18    19 1   
    30    19    39 1   
    31    19    40 1   
    32    19    41 1   
    33    20    21 1   
    34    20    42 1   
    35    20    43 1   
    36    21    22 1   
    37    21    23 1   
    38    21    44 1   
    39    22    45 1   
    40    22    46 1   
    41    23    24 ar  
    42    23    28 ar  
    43    24    25 ar  
    44    24    47 1   
    45    25    26 ar  
    46    25    48 1   
    47    26    27 ar  
    48    26    49 1   
    49    27    28 ar  
    50    27    29 ar  
    51    28    32 ar  
    52    29    30 ar  
    53    29    50 1   
    54    30    31 ar  
    55    30    51 1   
    56    31    32 ar  
    57    31    52 1   
    58    32    53 1   
@<TRIPOS>SUBSTRUCTURE
     1 6Z6         1 TEMP              0 ****  ****    0 ROOT
