@<TRIPOS>MOLECULE
6Z6
   54    58     1     0     0
SMALL
abcg2


@<TRIPOS>ATOM
      1 N1           4.2660     3.7110    -0.6000 n1         1 6Z6      -0.499000
      2 C2           4.2150    -1.3720     1.2120 ca         1 6Z6      -0.173500
      3 O2           0.2040     2.0300     1.1630 os         1 6Z6      -0.259200
      4 C4           3.1110     0.0010    -0.4440 ca         1 6Z6      -0.115300
      5 C5           4.0420    -0.4260    -1.3760 ca         1 6Z6      -0.055000
      6 C6           5.0590    -1.3140    -1.0400 ca         1 6Z6      -0.173500
      7 O1           0.8660    -1.1640    -2.2140 o          1 6Z6      -0.510100
      8 C9           0.2020    -0.7300    -1.2930 c          1 6Z6       0.587300
      9 C8           0.6560     0.4380    -0.5290 ce         1 6Z6      -0.267400
     10 C13         -0.1460     0.9580     0.4110 c2         1 6Z6       0.140900
     11 C14          1.3330     2.7120     0.8890 c2         1 6Z6       0.398100
     12 N            1.4450     3.7980     1.6540 nv         1 6Z6      -0.979000
     13 C15          2.1950     2.2960    -0.0810 ce         1 6Z6      -0.244900
     14 C16          3.3280     3.0760    -0.3580 cg         1 6Z6       0.316700
     15 C7           2.0240     0.9890    -0.8190 c6         1 6Z6       0.148000
     16 C3           3.2170    -0.4850     0.8580 ca         1 6Z6      -0.055000
     17 C1           5.1490    -1.7960     0.2630 ca         1 6Z6       0.141100
     18 O            6.0890    -2.6600     0.6930 os         1 6Z6      -0.344100
     19 C            7.0510    -3.1230    -0.2330 c3         1 6Z6       0.148900
     20 C10         -1.0850    -1.3890    -0.8640 c6         1 6Z6      -0.178400
     21 C11         -2.1030    -0.3650    -0.3680 c6         1 6Z6      -0.004400
     22 C12         -1.4960     0.4460     0.7750 c6         1 6Z6      -0.038200
     23 C17         -3.4250    -0.9660     0.0530 ca         1 6Z6      -0.071300
     24 C18         -3.4610    -2.1690     0.7120 ca         1 6Z6      -0.100000
     25 C19         -4.6690    -2.7430     1.1540 ca         1 6Z6      -0.109000
     26 C20         -5.8530    -2.1010     0.9330 ca         1 6Z6      -0.091000
     27 C21         -5.8720    -0.8530     0.2710 ca         1 6Z6      -0.038000
     28 C26         -4.6520    -0.2680    -0.1720 ca         1 6Z6      -0.023000
     29 C22         -7.0950    -0.1750     0.0500 ca         1 6Z6      -0.096000
     30 C23         -7.1230     1.0390    -0.5760 ca         1 6Z6      -0.106000
     31 C24         -5.9200     1.6280    -1.0110 ca         1 6Z6      -0.102000
     32 C25         -4.7230     0.9940    -0.8160 ca         1 6Z6      -0.107000
     33 H1           4.2810    -1.7440     2.2280 ha         1 6Z6       0.119500
     34 H2           3.9830    -0.0650    -2.3950 ha         1 6Z6       0.111500
     35 H3           5.7620    -1.6160    -1.8040 ha         1 6Z6       0.119500
     36 H4           0.7490     4.0090     2.3500 hn         1 6Z6       0.511000
     37 H5           2.2960     4.3320     1.6760 hn         1 6Z6       0.511000
     38 H6           2.5090    -0.1700     1.6160 ha         1 6Z6       0.111500
     39 H7           7.7050    -3.7990     0.3120 h1         1 6Z6       0.040033
     40 H8           6.5930    -3.6700    -1.0610 h1         1 6Z6       0.040033
     41 H9           7.6540    -2.3070    -0.6410 h1         1 6Z6       0.040033
     42 H10         -1.4850    -1.9670    -1.6970 hc         1 6Z6       0.077700
     43 H11         -0.8280    -2.1010    -0.0710 hc         1 6Z6       0.077700
     44 H12         -2.2720     0.3220    -1.1990 hc         1 6Z6       0.066700
     45 H13         -1.4100    -0.1750     1.6740 hc         1 6Z6       0.075700
     46 H14         -2.1420     1.2870     1.0400 hc         1 6Z6       0.075700
     47 H15         -2.5420    -2.7040     0.9090 ha         1 6Z6       0.112000
     48 H16         -4.6470    -3.6960     1.6670 ha         1 6Z6       0.117000
     49 H17         -6.7880    -2.5370     1.2630 ha         1 6Z6       0.116000
     50 H18         -8.0140    -0.6390     0.3870 ha         1 6Z6       0.114000
     51 H19         -8.0630     1.5490    -0.7390 ha         1 6Z6       0.116000
     52 H20         -5.9420     2.5900    -1.5060 ha         1 6Z6       0.115000
     53 H21         -3.8230     1.4790    -1.1680 ha         1 6Z6       0.113000
     54 H22          2.1010     1.1730    -1.8960 hc         1 6Z6       0.079700
@<TRIPOS>BOND
     1     1    14 3   
     2     2    16 ar  
     3     2    17 ar  
     4     2    33 1   
     5     3    10 1   
     6     3    11 1   
     7     4     5 ar  
     8     4    15 1   
     9     4    16 ar  
    10     5     6 ar  
    11     5    34 1   
    12     6    17 ar  
    13     6    35 1   
    14     7     8 2   
    15     8     9 1   
    16     8    20 1   
    17     9    10 2   
    18     9    15 1   
    19    10    22 1   
    20    11    12 1   
    21    11    13 2   
    22    12    36 1   
    23    12    37 1   
    24    13    14 1   
    25    13    15 1   
    26    15    54 1   
    27    16    38 1   
    28    17    18 1   
    29    18    19 1   
    30    19    39 1   
    31    19    40 1   
    32    19    41 1   
    33    20    21 1   
    34    20    42 1   
    35    20    43 1   
    36    21    22 1   
    37    21    23 1   
    38    21    44 1   
    39    22    45 1   
    40    22    46 1   
    41    23    24 ar  
    42    23    28 ar  
    43    24    25 ar  
    44    24    47 1   
    45    25    26 ar  
    46    25    48 1   
    47    26    27 ar  
    48    26    49 1   
    49    27    28 ar  
    50    27    29 ar  
    51    28    32 ar  
    52    29    30 ar  
    53    29    50 1   
    54    30    31 ar  
    55    30    51 1   
    56    31    32 ar  
    57    31    52 1   
    58    32    53 1   
@<TRIPOS>SUBSTRUCTURE
     1 6Z6         1 TEMP              0 ****  ****    0 ROOT
