@<TRIPOS>MOLECULE
6Z7
   53    56     1     0     0
SMALL
No Charge or Current Charge


@<TRIPOS>ATOM
      1 C1           9.2510     1.7150     0.8980 c3         1 6Z7       0.145900
      2 O2           8.2380     0.7090     1.0740 os         1 6Z7      -0.336100
      3 C3           7.0290     0.7580     0.4110 ca         1 6Z7       0.213100
      4 C4           6.6980     1.7920    -0.4860 ca         1 6Z7      -0.257000
      5 C5           5.4580     1.7770    -1.1330 ca         1 6Z7       0.204100
      6 O6           5.1480     2.7670    -2.0100 oh         1 6Z7      -0.528100
      7 C7           4.5430     0.7490    -0.8880 ca         1 6Z7      -0.295000
      8 C8           4.8640    -0.2690     0.0180 ca         1 6Z7       0.374000
      9 N9           3.9830    -1.3130     0.2690 nu         1 6Z7      -0.982000
     10 C10          2.5970    -1.4410     0.1920 ca         1 6Z7       0.374000
     11 C11          2.0400    -2.7170     0.0440 ca         1 6Z7      -0.190500
     12 C12          0.6470    -2.8850    -0.0210 ca         1 6Z7      -0.022500
     13 C13         -0.2190    -1.7720     0.0730 ca         1 6Z7      -0.227600
     14 C14          0.3520    -0.4870     0.2420 ca         1 6Z7      -0.022500
     15 C15          1.7470    -0.3310     0.3040 ca         1 6Z7      -0.190500
     16 C16         -1.7200    -1.9880    -0.0010 c          1 6Z7       0.635700
     17 O17         -2.1880    -3.1130    -0.1380 o          1 6Z7      -0.568100
     18 N18         -2.5040    -0.8460     0.0990 ns         1 6Z7      -0.148000
     19 C19         -3.9110    -0.6400     0.0700 ca         1 6Z7       0.026000
     20 C20         -4.8540    -1.6710    -0.1250 ca         1 6Z7      -0.094000
     21 C21         -6.2290    -1.3830    -0.1420 ca         1 6Z7      -0.056000
     22 C22         -6.6920    -0.0660     0.0390 ca         1 6Z7      -0.130300
     23 C23         -8.2100     0.1940    -0.0200 c6         1 6Z7      -0.050100
     24 C24         -8.6570     1.5560     0.5540 c6         1 6Z7       0.103600
     25 N25         -7.6570     2.6090     0.0280 ny         1 6Z7      -0.812000
     26 C26         -6.1840     2.4270     0.4440 c6         1 6Z7       0.155900
     27 C27         -5.7500     0.9760     0.2270 ca         1 6Z7      -0.114300
     28 C28         -4.3750     0.6770     0.2430 ca         1 6Z7      -0.155000
     29 C29          6.1100    -0.2700     0.6520 ca         1 6Z7      -0.235000
     30 HN25        -7.7010     2.6180    -1.0120 hn         1 6Z7       0.504000
     31 HN2A        -7.9740     3.5630     0.3020 hn         1 6Z7       0.504000
     32 H1           9.5770     1.7620    -0.1490 h1         1 6Z7       0.047367
     33 H1A          8.8770     2.7030     1.1950 h1         1 6Z7       0.047367
     34 H1B         10.1280     1.4840     1.5160 h1         1 6Z7       0.047367
     35 H4           7.3870     2.6030    -0.6980 ha         1 6Z7       0.141000
     36 HO6          4.2520     2.5880    -2.3640 ho         1 6Z7       0.464000
     37 H7           3.5930     0.7300    -1.4130 ha         1 6Z7       0.119000
     38 HN9          4.4480    -2.1640     0.5830 hn         1 6Z7       0.504000
     39 H11          2.6870    -3.5860    -0.0310 ha         1 6Z7       0.130000
     40 H12          0.2450    -3.8900    -0.1450 ha         1 6Z7       0.119500
     41 H14         -0.2660     0.4040     0.3330 ha         1 6Z7       0.119500
     42 H15          2.1630     0.6590     0.4590 ha         1 6Z7       0.130000
     43 HN18        -1.9750     0.0070     0.2150 hn         1 6Z7       0.159000
     44 H20         -4.5480    -2.7020    -0.2710 ha         1 6Z7       0.171000
     45 H21         -6.9390    -2.1910    -0.3010 ha         1 6Z7       0.134000
     46 H23         -8.5330     0.1330    -1.0680 hc         1 6Z7       0.090700
     47 H23A        -8.7520    -0.6040     0.5050 hc         1 6Z7       0.090700
     48 H24         -9.6680     1.8370     0.2360 hx         1 6Z7       0.101700
     49 H24A        -8.5990     1.5750     1.6480 hx         1 6Z7       0.101700
     50 H26         -5.5790     3.1270    -0.1430 hx         1 6Z7       0.099700
     51 H26A        -6.1120     2.6970     1.5030 hx         1 6Z7       0.099700
     52 H28         -3.6570     1.4810     0.3960 ha         1 6Z7       0.120000
     53 H29          6.3690    -1.0640     1.3450 ha         1 6Z7       0.135000
@<TRIPOS>BOND
     1     1     2 1   
     2     1    32 1   
     3     1    33 1   
     4     1    34 1   
     5     2     3 1   
     6     3     4 ar  
     7     3    29 ar  
     8     4     5 ar  
     9     4    35 1   
    10     5     6 1   
    11     5     7 ar  
    12     6    36 1   
    13     7     8 ar  
    14     7    37 1   
    15     8     9 1   
    16     8    29 ar  
    17     9    10 1   
    18     9    38 1   
    19    10    11 ar  
    20    10    15 ar  
    21    11    12 ar  
    22    11    39 1   
    23    12    13 ar  
    24    12    40 1   
    25    13    14 ar  
    26    13    16 1   
    27    14    15 ar  
    28    14    41 1   
    29    15    42 1   
    30    16    17 2   
    31    16    18 1   
    32    18    19 1   
    33    18    43 1   
    34    19    20 ar  
    35    19    28 ar  
    36    20    21 ar  
    37    20    44 1   
    38    21    22 ar  
    39    21    45 1   
    40    22    23 1   
    41    22    27 ar  
    42    23    24 1   
    43    23    46 1   
    44    23    47 1   
    45    24    25 1   
    46    24    48 1   
    47    24    49 1   
    48    25    26 1   
    49    25    30 1   
    50    25    31 1   
    51    26    27 1   
    52    26    50 1   
    53    26    51 1   
    54    27    28 ar  
    55    28    52 1   
    56    29    53 1   
@<TRIPOS>SUBSTRUCTURE
     1 6Z7         1 TEMP              0 ****  ****    0 ROOT
