@<TRIPOS>MOLECULE
6Z7
   53    56     1     0     0
SMALL
bcc


@<TRIPOS>ATOM
      1 C1           9.2010     1.3190     0.8180 c3         1 6Z7       0.122700
      2 O2           8.2260     0.2960     0.7610 os         1 6Z7      -0.312900
      3 C3           6.9880     0.6050     0.3370 ca         1 6Z7       0.213100
      4 C4           6.5970     1.8880    -0.0280 ca         1 6Z7      -0.275000
      5 C5           5.2890     2.0870    -0.4670 ca         1 6Z7       0.204100
      6 O6           4.9580     3.3410    -0.8310 oh         1 6Z7      -0.489100
      7 C7           4.3790     1.0410    -0.5410 ca         1 6Z7      -0.313000
      8 C8           4.7820    -0.2370    -0.1450 ca         1 6Z7       0.235600
      9 N9           3.9370    -1.3370    -0.2280 nu         1 6Z7      -0.650000
     10 C10          2.5690    -1.3930    -0.1240 ca         1 6Z7       0.235600
     11 C11          1.9200    -2.5620    -0.5500 ca         1 6Z7      -0.208500
     12 C12          0.5520    -2.6900    -0.4480 ca         1 6Z7      -0.040500
     13 C13         -0.2340    -1.6530     0.0580 ca         1 6Z7      -0.227600
     14 C14          0.4140    -0.5030     0.5060 ca         1 6Z7      -0.040500
     15 C15          1.7880    -0.3710     0.4310 ca         1 6Z7      -0.208500
     16 C16         -1.7040    -1.8510     0.1300 c          1 6Z7       0.702700
     17 O17         -2.2000    -2.9660     0.1410 o          1 6Z7      -0.568100
     18 N18         -2.4400    -0.7060     0.1640 ns         1 6Z7      -0.474100
     19 C19         -3.8280    -0.5710     0.2410 ca         1 6Z7       0.118600
     20 C20         -4.6940    -1.5720     0.6900 ca         1 6Z7      -0.112000
     21 C21         -6.0530    -1.3190     0.7500 ca         1 6Z7      -0.074000
     22 C22         -6.5980    -0.0930     0.3840 ca         1 6Z7      -0.130300
     23 C23         -8.0840     0.1380     0.4390 c6         1 6Z7      -0.050100
     24 C24         -8.4330     1.6100     0.4330 c6         1 6Z7       0.131800
     25 N25         -7.6820     2.2840    -0.6610 ny         1 6Z7      -0.758000
     26 C26         -6.2170     2.2700    -0.4340 c6         1 6Z7       0.184100
     27 C27         -5.7290     0.9010    -0.0560 ca         1 6Z7      -0.114300
     28 C28         -4.3640     0.6590    -0.1290 ca         1 6Z7      -0.173000
     29 C29          6.0840    -0.4550     0.2920 ca         1 6Z7      -0.253000
     30 HN25        -7.9070     1.8440    -1.5550 hn         1 6Z7       0.448800
     31 HN2A        -7.9940     3.2510    -0.7520 hn         1 6Z7       0.448800
     32 H1           9.3820     1.7650    -0.1630 h1         1 6Z7       0.047367
     33 H1A          8.9250     2.1100     1.5200 h1         1 6Z7       0.047367
     34 H1B         10.1190     0.8510     1.1650 h1         1 6Z7       0.047367
     35 H4           7.2720     2.7320     0.0090 ha         1 6Z7       0.159000
     36 HO6          4.0380     3.3780    -1.1130 ho         1 6Z7       0.425000
     37 H7           3.3880     1.2170    -0.9400 ha         1 6Z7       0.137000
     38 HN9          4.3990    -2.2240    -0.3520 hn         1 6Z7       0.448800
     39 H11          2.5020    -3.3740    -0.9690 ha         1 6Z7       0.148000
     40 H12          0.0850    -3.6040    -0.7890 ha         1 6Z7       0.137500
     41 H14         -0.1390     0.3070     0.9650 ha         1 6Z7       0.137500
     42 H15          2.2480     0.5210     0.8310 ha         1 6Z7       0.148000
     43 HN18        -1.9470     0.1540    -0.0220 hn         1 6Z7       0.325500
     44 H20         -4.3240    -2.5350     1.0000 ha         1 6Z7       0.189000
     45 H21         -6.7100    -2.1060     1.1010 ha         1 6Z7       0.152000
     46 H23         -8.5720    -0.3580    -0.4050 hc         1 6Z7       0.090700
     47 H23A        -8.5060    -0.3070     1.3410 hc         1 6Z7       0.090700
     48 H24         -9.4920     1.7780     0.2600 hx         1 6Z7       0.101700
     49 H24A        -8.1430     2.1030     1.3600 hx         1 6Z7       0.101700
     50 H26         -5.7420     2.6290    -1.3450 hx         1 6Z7       0.099700
     51 H26A        -6.0190     2.9920     0.3580 hx         1 6Z7       0.099700
     52 H28         -3.7060     1.4460    -0.4820 ha         1 6Z7       0.138000
     53 H29          6.4000    -1.4450     0.5990 ha         1 6Z7       0.153000
@<TRIPOS>BOND
     1     1     2 1   
     2     1    32 1   
     3     1    33 1   
     4     1    34 1   
     5     2     3 1   
     6     3     4 ar  
     7     3    29 ar  
     8     4     5 ar  
     9     4    35 1   
    10     5     6 1   
    11     5     7 ar  
    12     6    36 1   
    13     7     8 ar  
    14     7    37 1   
    15     8     9 1   
    16     8    29 ar  
    17     9    10 1   
    18     9    38 1   
    19    10    11 ar  
    20    10    15 ar  
    21    11    12 ar  
    22    11    39 1   
    23    12    13 ar  
    24    12    40 1   
    25    13    14 ar  
    26    13    16 1   
    27    14    15 ar  
    28    14    41 1   
    29    15    42 1   
    30    16    17 2   
    31    16    18 1   
    32    18    19 1   
    33    18    43 1   
    34    19    20 ar  
    35    19    28 ar  
    36    20    21 ar  
    37    20    44 1   
    38    21    22 ar  
    39    21    45 1   
    40    22    23 1   
    41    22    27 ar  
    42    23    24 1   
    43    23    46 1   
    44    23    47 1   
    45    24    25 1   
    46    24    48 1   
    47    24    49 1   
    48    25    26 1   
    49    25    30 1   
    50    25    31 1   
    51    26    27 1   
    52    26    50 1   
    53    26    51 1   
    54    27    28 ar  
    55    28    52 1   
    56    29    53 1   
@<TRIPOS>SUBSTRUCTURE
     1 6Z7         1 TEMP              0 ****  ****    0 ROOT
