@<TRIPOS>MOLECULE
6Z8
   51    54     1     0     0
SMALL
No Charge or Current Charge


@<TRIPOS>ATOM
      1 N1          -0.9940     0.0110     0.6830 na         1 6Z8      -0.144500
      2 C4          -0.0910    -1.0520     1.1770 c3         1 6Z8       0.117900
      3 C5          -2.7360     1.1320    -0.0150 cc         1 6Z8       0.459900
      4 C6          -3.3890    -1.0020     1.0350 c          1 6Z8       0.631600
      5 C13          0.9810     2.6110    -1.1860 c6         1 6Z8       0.213800
      6 C15          2.2630    -1.9030     0.5740 ca         1 6Z8      -0.016900
      7 C17         -5.0690     0.5730     0.1150 c          1 6Z8       0.623000
      8 C20          2.4820     2.5090    -1.6230 c6         1 6Z8       0.158500
      9 C21          3.0260     1.7960     0.7770 c6         1 6Z8      -0.084400
     10 C22          3.2060    -2.3360    -0.3750 ca         1 6Z8      -0.091000
     11 C24          1.5700    -2.0540    -2.1460 ca         1 6Z8      -0.085000
     12 C26          3.4070     2.7350    -0.4000 c6         1 6Z8      -0.116400
     13 C28          2.8620    -2.4100    -1.7330 ca         1 6Z8      -0.105000
     14 C2          -2.3870    -0.0220     0.6040 cd         1 6Z8      -0.362600
     15 C3          -0.6340     1.2290     0.1140 cd         1 6Z8       0.712400
     16 N7          -1.6660     1.9080    -0.3320 nc         1 6Z8      -0.755000
     17 N8           0.6730     1.6740    -0.0600 nh         1 6Z8      -0.774300
     18 C9           0.9600    -1.5260     0.1660 ca         1 6Z8      -0.074300
     19 N10         -4.0460     1.4500    -0.2770 n          1 6Z8      -0.360300
     20 N11         -4.7100    -0.6340     0.7420 n          1 6Z8      -0.373400
     21 O12         -3.0990    -2.0440     1.6050 o          1 6Z8      -0.544000
     22 C14          1.5230     1.9180     1.1340 c6         1 6Z8       0.208800
     23 C16          0.6240    -1.6180    -1.2030 ca         1 6Z8      -0.091000
     24 C18         -4.4190     2.7220    -0.9490 c3         1 6Z8       0.101300
     25 C19         -5.8020    -1.5630     1.1430 c3         1 6Z8       0.085300
     26 O25         -6.2440     0.8550    -0.0820 o          1 6Z8      -0.557000
     27 N27          2.7850     1.1940    -2.2400 n8         1 6Z8      -0.997200
     28 H1           0.3810    -0.6820     2.0920 h1         1 6Z8       0.093700
     29 H2          -0.6820    -1.9250     1.4710 h1         1 6Z8       0.093700
     30 H3           0.7670     3.6470    -0.8800 h1         1 6Z8       0.062200
     31 H4           0.3450     2.3970    -2.0570 h1         1 6Z8       0.062200
     32 H5           2.6970     3.2850    -2.3740 h1         1 6Z8       0.066700
     33 H6           3.2600     0.7560     0.5180 hc         1 6Z8       0.053700
     34 H7           3.6340     2.0370     1.6590 hc         1 6Z8       0.053700
     35 H8           4.2070    -2.6190    -0.0550 ha         1 6Z8       0.130000
     36 H9           1.2990    -2.1160    -3.1980 ha         1 6Z8       0.125000
     37 H10          4.4600     2.5900    -0.6780 hc         1 6Z8       0.047200
     38 H11          3.3190     3.7800    -0.0720 hc         1 6Z8       0.047200
     39 H12          3.5950    -2.7470    -2.4640 ha         1 6Z8       0.122000
     40 H13          1.2890     1.2190     1.9470 h1         1 6Z8       0.045200
     41 H14          1.3290     2.9290     1.5230 h1         1 6Z8       0.045200
     42 H15         -0.3740    -1.3550    -1.5440 ha         1 6Z8       0.128000
     43 H16         -5.1940     2.5380    -1.7030 h1         1 6Z8       0.058367
     44 H17         -4.8050     3.4300    -0.2050 h1         1 6Z8       0.058367
     45 H18         -3.5570     3.1740    -1.4540 h1         1 6Z8       0.058367
     46 H19         -6.6060    -1.5590     0.3960 h1         1 6Z8       0.057367
     47 H20         -5.4400    -2.5950     1.2290 h1         1 6Z8       0.057367
     48 H21         -6.2140    -1.2490     2.1110 h1         1 6Z8       0.057367
     49 H22          3.7760     0.9860    -2.0850 hn         1 6Z8       0.401000
     50 H23          2.3030     0.4880    -1.6690 hn         1 6Z8       0.401000
     51 Br           2.8080    -1.8480     2.4150 br         1 6Z8      -0.105100
@<TRIPOS>BOND
     1     1     2 1   
     2     1    14 1   
     3     1    15 1   
     4     2    18 1   
     5     2    28 1   
     6     2    29 1   
     7     3    14 2   
     8     3    16 1   
     9     3    19 1   
    10     4    14 1   
    11     4    20 1   
    12     4    21 2   
    13     5     8 1   
    14     5    17 1   
    15     5    30 1   
    16     5    31 1   
    17     6    10 ar  
    18     6    18 ar  
    19     6    51 1   
    20     7    19 1   
    21     7    20 1   
    22     7    26 2   
    23     8    12 1   
    24     8    27 1   
    25     8    32 1   
    26     9    12 1   
    27     9    22 1   
    28     9    33 1   
    29     9    34 1   
    30    10    13 ar  
    31    10    35 1   
    32    11    13 ar  
    33    11    23 ar  
    34    11    36 1   
    35    12    37 1   
    36    12    38 1   
    37    13    39 1   
    38    15    16 2   
    39    15    17 1   
    40    17    22 1   
    41    18    23 ar  
    42    19    24 1   
    43    20    25 1   
    44    22    40 1   
    45    22    41 1   
    46    23    42 1   
    47    24    43 1   
    48    24    44 1   
    49    24    45 1   
    50    25    46 1   
    51    25    47 1   
    52    25    48 1   
    53    27    49 1   
    54    27    50 1   
@<TRIPOS>SUBSTRUCTURE
     1 6Z8         1 TEMP              0 ****  ****    0 ROOT
