@<TRIPOS>MOLECULE
6Z8
   51    54     1     0     0
SMALL
bcc


@<TRIPOS>ATOM
      1 N1          -0.8760     0.1800     0.8040 na         1 6Z8      -0.165900
      2 C4           0.0400    -0.8380     1.2800 c3         1 6Z8       0.088600
      3 C5          -2.6290     1.0900    -0.1310 cc         1 6Z8       0.525200
      4 C6          -3.1690    -0.9350     1.1140 c          1 6Z8       0.774100
      5 C13          1.0420     2.6630    -1.0650 c6         1 6Z8       0.213800
      6 C15          2.1180    -2.0050     0.3810 ca         1 6Z8      -0.016900
      7 C17         -4.8990     0.4230    -0.0590 c          1 6Z8       0.832500
      8 C20          2.5170     2.5200    -1.4290 c6         1 6Z8       0.158500
      9 C21          2.9770     1.9480     0.9890 c6         1 6Z8      -0.084400
     10 C22          2.8600    -2.5610    -0.6530 ca         1 6Z8      -0.109000
     11 C24          1.0690    -2.0690    -2.1700 ca         1 6Z8      -0.103000
     12 C26          3.3850     2.8110    -0.2000 c6         1 6Z8      -0.116400
     13 C28          2.3340    -2.5870    -1.9350 ca         1 6Z8      -0.123000
     14 C2          -2.2440     0.0240     0.6330 cd         1 6Z8      -0.377200
     15 C3          -0.5480     1.3210     0.1450 cd         1 6Z8       0.712400
     16 N7          -1.5970     1.8950    -0.4290 nc         1 6Z8      -0.755000
     17 N8           0.7330     1.7670     0.0430 nh         1 6Z8      -0.774300
     18 C9           0.8580    -1.4480     0.1660 ca         1 6Z8      -0.074300
     19 N10         -3.9260     1.2880    -0.4990 n          1 6Z8      -0.427300
     20 N11         -4.4770    -0.6690     0.6900 n          1 6Z8      -0.507400
     21 O12         -2.9290    -1.9050     1.8190 o          1 6Z8      -0.619500
     22 C14          1.4890     2.0910     1.2540 c6         1 6Z8       0.208800
     23 C16          0.3470    -1.5110    -1.1290 ca         1 6Z8      -0.109000
     24 C18         -4.2980     2.4640    -1.2680 c3         1 6Z8       0.101300
     25 C19         -5.4870    -1.6250     1.1320 c3         1 6Z8       0.085300
     26 O25         -6.0720     0.6110    -0.3220 o          1 6Z8      -0.632500
     27 N27          2.7290     1.2120    -2.0320 n8         1 6Z8      -0.886800
     28 H1           0.6730    -0.4190     2.0580 h1         1 6Z8       0.093700
     29 H2          -0.5580    -1.6080     1.7650 h1         1 6Z8       0.093700
     30 H3           0.8220     3.7040    -0.7970 h1         1 6Z8       0.062200
     31 H4           0.4260     2.4000    -1.9230 h1         1 6Z8       0.062200
     32 H5           2.7300     3.2780    -2.1890 h1         1 6Z8       0.066700
     33 H6           3.2150     0.8970     0.8040 hc         1 6Z8       0.053700
     34 H7           3.5280     2.2430     1.8840 hc         1 6Z8       0.053700
     35 H8           3.8420    -2.9740    -0.4640 ha         1 6Z8       0.148000
     36 H9           0.6440    -2.0950    -3.1640 ha         1 6Z8       0.143000
     37 H10          4.4390     2.6570    -0.4450 hc         1 6Z8       0.047200
     38 H11          3.2780     3.8680     0.0700 hc         1 6Z8       0.047200
     39 H12          2.9140    -3.0160    -2.7410 ha         1 6Z8       0.140000
     40 H13          1.1800     1.4550     2.0800 h1         1 6Z8       0.045200
     41 H14          1.2630     3.1240     1.5530 h1         1 6Z8       0.045200
     42 H15         -0.6370    -1.1090    -1.3360 ha         1 6Z8       0.146000
     43 H16         -5.1610     2.2450    -1.8880 h1         1 6Z8       0.058367
     44 H17         -4.5310     3.3040    -0.6140 h1         1 6Z8       0.058367
     45 H18         -3.4660     2.7390    -1.9100 h1         1 6Z8       0.058367
     46 H19         -6.4410    -1.3700     0.6890 h1         1 6Z8       0.057367
     47 H20         -5.2120    -2.6300     0.8220 h1         1 6Z8       0.057367
     48 H21         -5.5880    -1.6050     2.2150 h1         1 6Z8       0.057367
     49 H22          3.7220     1.0320    -2.1240 hn         1 6Z8       0.345800
     50 H23          2.3680     0.4880    -1.4220 hn         1 6Z8       0.345800
     51 BR           2.8760    -2.0530     2.1170 br         1 6Z8      -0.105100
@<TRIPOS>BOND
     1     1     2 1   
     2     1    14 1   
     3     1    15 1   
     4     2    18 1   
     5     2    28 1   
     6     2    29 1   
     7     3    14 2   
     8     3    16 1   
     9     3    19 1   
    10     4    14 1   
    11     4    20 1   
    12     4    21 2   
    13     5     8 1   
    14     5    17 1   
    15     5    30 1   
    16     5    31 1   
    17     6    10 ar  
    18     6    18 ar  
    19     6    51 1   
    20     7    19 1   
    21     7    20 1   
    22     7    26 2   
    23     8    12 1   
    24     8    27 1   
    25     8    32 1   
    26     9    12 1   
    27     9    22 1   
    28     9    33 1   
    29     9    34 1   
    30    10    13 ar  
    31    10    35 1   
    32    11    13 ar  
    33    11    23 ar  
    34    11    36 1   
    35    12    37 1   
    36    12    38 1   
    37    13    39 1   
    38    15    16 2   
    39    15    17 1   
    40    17    22 1   
    41    18    23 ar  
    42    19    24 1   
    43    20    25 1   
    44    22    40 1   
    45    22    41 1   
    46    23    42 1   
    47    24    43 1   
    48    24    44 1   
    49    24    45 1   
    50    25    46 1   
    51    25    47 1   
    52    25    48 1   
    53    27    49 1   
    54    27    50 1   
@<TRIPOS>SUBSTRUCTURE
     1 6Z8         1 TEMP              0 ****  ****    0 ROOT
