@<TRIPOS>MOLECULE
6ZA
   35    38     1     0     0
SMALL
No Charge or Current Charge


@<TRIPOS>ATOM
      1 N12         -5.5360    -0.0180    -0.2900 nc         1 6ZA      -0.782100
      2 C15          1.5870     0.0790    -1.0760 c5         1 6ZA       0.070300
      3 C17         -0.4170     0.7410    -0.0960 c5         1 6ZA       0.268300
      4 C20         -1.4820    -0.9470     1.5190 cc         1 6ZA       0.403400
      5 C21         -3.5750    -0.7760     0.9490 cd         1 6ZA       0.136500
      6 C22         -5.0450    -0.8290     0.7140 c          1 6ZA       0.661000
      7 P02          4.2160    -0.8290     0.1450 p5         1 6ZA       1.164200
      8 O03          0.1620    -0.0340    -1.1920 os         1 6ZA      -0.416000
      9 O04          3.1420     0.2300     0.7700 os         1 6ZA      -0.283400
     10 O05          3.7830    -0.8990    -1.4270 os         1 6ZA      -0.362400
     11 O06          1.3240     2.4220     0.6050 oh         1 6ZA      -0.678000
     12 O07          3.7010    -2.2470     0.7010 oh         1 6ZA      -0.518400
     13 O08         -5.8060    -1.5410     1.3570 o          1 6ZA      -0.517100
     14 N09         -1.5240    -0.0290     0.4750 na         1 6ZA      -0.218500
     15 N10         -3.4340     0.8030    -0.8210 na         1 6ZA      -0.929200
     16 N11         -2.6990    -1.4200     1.8250 nd         1 6ZA      -0.577000
     17 C14          1.7510    -0.0210     0.4450 c5         1 6ZA      -0.053700
     18 C16          0.7840     1.1130     0.8810 c5         1 6ZA       0.143300
     19 C18          2.3920    -0.9970    -1.8280 c6         1 6ZA       0.004600
     20 C19         -2.8460     0.0560     0.1820 cc         1 6ZA       0.204000
     21 C23         -4.7630     0.7380    -0.9990 cd         1 6ZA       0.903100
     22 H151         1.8990     1.0640    -1.4590 h1         1 6ZA       0.105700
     23 H171        -0.8630     1.6630    -0.4880 h2         1 6ZA       0.080700
     24 H201        -0.5560    -1.2280     2.0060 h5         1 6ZA       0.062100
     25 H061         0.8280     3.0720     1.1560 ho         1 6ZA       0.516000
     26 H071         4.2550    -2.9000     0.2410 ho         1 6ZA       0.297000
     27 H101        -2.8960     1.3620    -1.4660 hn         1 6ZA       0.498000
     28 H131        -6.2720     1.5060    -1.8790 hn         1 6ZA       0.505500
     29 H132        -4.8370     2.3960    -2.0120 hn         1 6ZA       0.505500
     30 H141         1.4410    -1.0000     0.8350 h1         1 6ZA       0.079700
     31 H161         0.5020     1.0200     1.9400 h1         1 6ZA       0.086700
     32 H181         2.0110    -2.0010    -1.5900 h1         1 6ZA       0.083200
     33 H182         2.3150    -0.8430    -2.9130 h1         1 6ZA       0.083200
     34 S01          6.0990    -0.4540     0.4930 s          1 6ZA      -0.473000
     35 N13         -5.2630     1.4870    -1.9260 nv         1 6ZA      -1.054200
@<TRIPOS>BOND
     1     1     6 1   
     2     1    21 2   
     3     2     8 1   
     4     2    17 1   
     5     2    19 1   
     6     2    22 1   
     7     3     8 1   
     8     3    14 1   
     9     3    18 1   
    10     3    23 1   
    11     4    14 1   
    12     4    16 2   
    13     4    24 1   
    14     5     6 1   
    15     5    16 1   
    16     5    20 2   
    17     6    13 2   
    18     7     9 1   
    19     7    10 1   
    20     7    12 1   
    21     7    34 2   
    22     9    17 1   
    23    10    19 1   
    24    11    18 1   
    25    11    25 1   
    26    12    26 1   
    27    14    20 1   
    28    15    20 1   
    29    15    21 1   
    30    15    27 1   
    31    17    18 1   
    32    17    30 1   
    33    18    31 1   
    34    19    32 1   
    35    19    33 1   
    36    21    35 1   
    37    28    35 1   
    38    29    35 1   
@<TRIPOS>SUBSTRUCTURE
     1 6ZA         1 TEMP              0 ****  ****    0 ROOT
