@<TRIPOS>MOLECULE
6ZA
   35    38     1     0     0
SMALL
bcc


@<TRIPOS>ATOM
      1 N12         -5.4040     0.2910     0.4200 nc         1 6ZA      -0.782100
      2 C15          1.7450    -0.2980    -1.2210 c5         1 6ZA       0.047100
      3 C17         -0.4230     0.3610    -0.8910 c5         1 6ZA       0.215800
      4 C20         -1.4330    -1.6870     0.2170 cc         1 6ZA       0.403400
      5 C21         -3.4400    -1.0500     0.4830 cd         1 6ZA       0.201800
      6 C22         -4.8480    -0.9110     0.7850 c          1 6ZA       0.661000
      7 P02          4.0800    -0.4020     0.6260 p5         1 6ZA       1.164200
      8 O03          0.4070    -0.5270    -1.6020 os         1 6ZA      -0.369600
      9 O04          2.8310     0.6120     0.7520 os         1 6ZA      -0.460200
     10 O05          3.9240    -1.0890    -0.8200 os         1 6ZA      -0.539200
     11 O06          0.9400     2.3110    -0.3360 oh         1 6ZA      -0.555800
     12 O07          3.6480    -1.5090     1.6960 oh         1 6ZA      -0.719400
     13 O08         -5.5170    -1.7830     1.3270 o          1 6ZA      -0.517100
     14 N09         -1.4980    -0.4120    -0.3060 na         1 6ZA      -0.239900
     15 N10         -3.3900     1.1460    -0.4640 na         1 6ZA      -0.735600
     16 N11         -2.5700    -2.0890     0.6900 nd         1 6ZA      -0.577000
     17 C14          1.6100     0.1140     0.2350 c5         1 6ZA       0.123100
     18 C16          0.4620     1.1010     0.1600 c5         1 6ZA       0.120100
     19 C18          2.6450    -1.5080    -1.3370 c6         1 6ZA       0.181400
     20 C19         -2.7820    -0.0200    -0.1300 cc         1 6ZA       0.051000
     21 C23         -4.7230     1.2390    -0.1630 cd         1 6ZA       0.903100
     22 H151         2.1830     0.5190    -1.8080 h1         1 6ZA       0.105700
     23 H171        -0.8750     1.0890    -1.5720 h2         1 6ZA       0.080700
     24 H201        -0.5240    -2.2670     0.1990 h5         1 6ZA       0.062100
     25 H061         0.2830     2.9980    -0.1830 ho         1 6ZA       0.417000
     26 H071         4.3000    -2.2090     1.8410 ho         1 6ZA       0.498000
     27 H101        -2.9120     1.9030    -0.9300 hn         1 6ZA       0.442800
     28 H131        -6.2710     2.5270    -0.2080 hn         1 6ZA       0.450300
     29 H132        -4.8070     3.1870    -0.8090 hn         1 6ZA       0.450300
     30 H141         1.2770    -0.7460     0.8300 h1         1 6ZA       0.079700
     31 H161        -0.0700     1.2140     1.1090 h1         1 6ZA       0.086700
     32 H181         2.2610    -2.3620    -0.7730 h1         1 6ZA       0.083200
     33 H182         2.8160    -1.8150    -2.3670 h1         1 6ZA       0.083200
     34 S01          5.7830     0.4320     0.8520 s          1 6ZA      -0.473000
     35 N13         -5.3300     2.3760    -0.5260 nv         1 6ZA      -0.943800
@<TRIPOS>BOND
     1     1     6 1   
     2     1    21 2   
     3     2     8 1   
     4     2    17 1   
     5     2    19 1   
     6     2    22 1   
     7     3     8 1   
     8     3    14 1   
     9     3    18 1   
    10     3    23 1   
    11     4    14 1   
    12     4    16 2   
    13     4    24 1   
    14     5     6 1   
    15     5    16 1   
    16     5    20 2   
    17     6    13 2   
    18     7     9 1   
    19     7    10 1   
    20     7    12 1   
    21     7    34 2   
    22     9    17 1   
    23    10    19 1   
    24    11    18 1   
    25    11    25 1   
    26    12    26 1   
    27    14    20 1   
    28    15    20 1   
    29    15    21 1   
    30    15    27 1   
    31    17    18 1   
    32    17    30 1   
    33    18    31 1   
    34    19    32 1   
    35    19    33 1   
    36    21    35 1   
    37    28    35 1   
    38    29    35 1   
@<TRIPOS>SUBSTRUCTURE
     1 6ZA         1 TEMP              0 ****  ****    0 ROOT
