@<TRIPOS>MOLECULE
6ZB
   29    30     1     0     0
SMALL
abcg2


@<TRIPOS>ATOM
      1 O            3.4290    -1.2570     0.7770 o          1 6ZB      -0.575100
      2 C            3.1010    -0.3450     0.0350 c          1 6ZB       0.552100
      3 N03          3.9470     0.6000    -0.4060 ns         1 6ZB      -0.387400
      4 O04          5.2830     0.5060    -0.1540 oh         1 6ZB      -0.424100
      5 CA           1.6620    -0.1530    -0.4400 c3         1 6ZB       0.097500
      6 N            1.0970    -1.3640    -0.9930 n8         1 6ZB      -0.977200
      7 CB           0.8250     0.3440     0.7480 c3         1 6ZB       0.011800
      8 CG          -0.5570     0.7640     0.3750 cc         1 6ZB      -0.129400
      9 CD2         -1.7280    -0.0540     0.2540 ca         1 6ZB      -0.077800
     10 CE2         -2.7980     0.8000    -0.0970 ca         1 6ZB      -0.049200
     11 NE1         -2.2960     2.0650    -0.1890 na         1 6ZB      -0.223700
     12 CD1         -0.9610     2.0410     0.1000 cd         1 6ZB      -0.167100
     13 CE3         -1.9840    -1.4200     0.4230 ca         1 6ZB      -0.045000
     14 CZ3         -3.2700    -1.8900     0.2470 ca         1 6ZB      -0.146000
     15 CH2         -4.3180    -1.0230    -0.1070 ca         1 6ZB      -0.090000
     16 CZ2         -4.0980     0.3290    -0.2840 ca         1 6ZB      -0.133000
     17 H1           3.6970     1.2560    -1.1320 hn         1 6ZB       0.335500
     18 H2           5.4510     1.0600     0.6190 ho         1 6ZB       0.444000
     19 HA           1.6300     0.6160    -1.2180 h1         1 6ZB       0.062700
     20 H            1.6110    -1.6460    -1.8190 hn         1 6ZB       0.407500
     21 HN2          1.1910    -2.1210    -0.3270 hn         1 6ZB       0.407500
     22 HB1          0.7890    -0.4460     1.5060 hc         1 6ZB       0.053700
     23 HB2          1.3440     1.1870     1.2120 hc         1 6ZB       0.053700
     24 HE1         -2.8230     2.8910    -0.4150 hn         1 6ZB       0.348000
     25 HD1         -0.3840     2.9530     0.0980 h4         1 6ZB       0.205000
     26 HE3         -1.1840    -2.1000     0.6860 ha         1 6ZB       0.116000
     27 HZ3         -3.4780    -2.9450     0.3780 ha         1 6ZB       0.110000
     28 HH2         -5.3160    -1.4210    -0.2420 ha         1 6ZB       0.108000
     29 HZ2         -4.9060     0.9980    -0.5550 ha         1 6ZB       0.110000
@<TRIPOS>BOND
     1     1     2 2   
     2     2     3 1   
     3     2     5 1   
     4     3     4 1   
     5     3    17 1   
     6     4    18 1   
     7     5     6 1   
     8     5     7 1   
     9     5    19 1   
    10     6    20 1   
    11     6    21 1   
    12     7     8 1   
    13     7    22 1   
    14     7    23 1   
    15     8     9 1   
    16     8    12 2   
    17     9    10 ar  
    18     9    13 ar  
    19    10    11 1   
    20    10    16 ar  
    21    11    12 1   
    22    11    24 1   
    23    12    25 1   
    24    13    14 ar  
    25    13    26 1   
    26    14    15 ar  
    27    14    27 1   
    28    15    16 ar  
    29    15    28 1   
    30    16    29 1   
@<TRIPOS>SUBSTRUCTURE
     1 6ZB         1 TEMP              0 ****  ****    0 ROOT
