@<TRIPOS>MOLECULE
6ZB
   29    30     1     0     0
SMALL
No Charge or Current Charge


@<TRIPOS>ATOM
      1 O            3.5410    -1.1700     0.9290 o          1 6ZB      -0.575100
      2 C            3.1550    -0.3070     0.1470 c          1 6ZB       0.552100
      3 N03          4.0180     0.6440    -0.3930 ns         1 6ZB      -0.387400
      4 O04          5.4530     0.5130    -0.2500 oh         1 6ZB      -0.424100
      5 CA           1.6630    -0.2110    -0.3350 c3         1 6ZB       0.097500
      6 N            1.1470    -1.4540    -1.0130 n8         1 6ZB      -0.977200
      7 CB           0.7520     0.2240     0.8460 c3         1 6ZB       0.011800
      8 CG          -0.6110     0.7310     0.4340 cc         1 6ZB      -0.129400
      9 CD2         -1.8150    -0.0380     0.2690 ca         1 6ZB      -0.077800
     10 CE2         -2.8130     0.8220    -0.0970 ca         1 6ZB      -0.049200
     11 NE1         -2.3360     2.1170    -0.1840 na         1 6ZB      -0.223700
     12 CD1         -0.9630     2.0490     0.1540 cd         1 6ZB      -0.167100
     13 CE3         -2.0490    -1.4120     0.4360 ca         1 6ZB      -0.045000
     14 CZ3         -3.3560    -1.8930     0.2090 ca         1 6ZB      -0.146000
     15 CH2         -4.3890    -1.0040    -0.1720 ca         1 6ZB      -0.090000
     16 CZ2         -4.1200     0.3720    -0.3280 ca         1 6ZB      -0.133000
     17 H1           3.6960     1.2420    -1.1530 hn         1 6ZB       0.335500
     18 H2           5.7370     1.4000     0.0750 ho         1 6ZB       0.444000
     19 HA           1.6270     0.5980    -1.0780 h1         1 6ZB       0.062700
     20 H            1.7440    -1.6800    -1.8180 hn         1 6ZB       0.407500
     21 HN2          1.2880    -2.2560    -0.3860 hn         1 6ZB       0.407500
     22 HB1          0.6470    -0.6090     1.5520 hc         1 6ZB       0.053700
     23 HB2          1.2620     1.0210     1.4020 hc         1 6ZB       0.053700
     24 HE1         -2.8660     2.9470    -0.4350 hn         1 6ZB       0.348000
     25 HD1         -0.3380     2.9380     0.1710 h4         1 6ZB       0.205000
     26 HE3         -1.2490    -2.0860     0.7290 ha         1 6ZB       0.116000
     27 HZ3         -3.5700    -2.9530     0.3290 ha         1 6ZB       0.110000
     28 HH2         -5.3940    -1.3830    -0.3440 ha         1 6ZB       0.108000
     29 HZ2         -4.9080     1.0640    -0.6180 ha         1 6ZB       0.110000
@<TRIPOS>BOND
     1     1     2 2   
     2     2     3 1   
     3     2     5 1   
     4     3     4 1   
     5     3    17 1   
     6     4    18 1   
     7     5     6 1   
     8     5     7 1   
     9     5    19 1   
    10     6    20 1   
    11     6    21 1   
    12     7     8 1   
    13     7    22 1   
    14     7    23 1   
    15     8     9 1   
    16     8    12 2   
    17     9    10 ar  
    18     9    13 ar  
    19    10    11 1   
    20    10    16 ar  
    21    11    12 1   
    22    11    24 1   
    23    12    25 1   
    24    13    14 ar  
    25    13    26 1   
    26    14    15 ar  
    27    14    27 1   
    28    15    16 ar  
    29    15    28 1   
    30    16    29 1   
@<TRIPOS>SUBSTRUCTURE
     1 6ZB         1 TEMP              0 ****  ****    0 ROOT
