@<TRIPOS>MOLECULE
6ZC
   42    43     1     0     0
SMALL
bcc


@<TRIPOS>ATOM
      1 C1           1.0170     0.0770     0.6390 c6         1 6ZC       0.320900
      2 C2           2.4290     0.4750     0.2010 c6         1 6ZC       0.098700
      3 C3           2.9790    -0.5320    -0.8020 c6         1 6ZC       0.139100
      4 C4           2.8630    -1.9370    -0.2180 c6         1 6ZC       0.080100
      5 C5           1.4170    -2.2260     0.1970 c6         1 6ZC       0.117100
      6 C6           1.2870    -3.5530     0.9110 c3         1 6ZC       0.146400
      7 N2           2.4620     1.8130    -0.3250 ns         1 6ZC      -0.558900
      8 O1           0.1770     0.2830    -0.4810 os         1 6ZC      -0.355900
      9 O4           3.3000    -2.8390    -1.2090 oh         1 6ZC      -0.597800
     10 O5           0.9650    -1.2230     1.1010 os         1 6ZC      -0.398600
     11 O6          -0.0720    -3.7990     1.1730 oh         1 6ZC      -0.581800
     12 O8          -5.9220     1.1200    -1.1670 o          1 6ZC      -0.216500
     13 O2          -5.9050     0.4520     0.8590 o          1 6ZC      -0.216500
     14 C12         -3.9060     0.5990    -0.2340 ca         1 6ZC      -0.222200
     15 C11         -3.2310     0.9440    -1.4000 ca         1 6ZC      -0.027000
     16 C10         -1.8600     0.8220    -1.4440 ca         1 6ZC      -0.198500
     17 C13         -3.2180     0.1270     0.8740 ca         1 6ZC      -0.027000
     18 C14         -1.8420    -0.0040     0.8270 ca         1 6ZC      -0.198500
     19 C9          -1.1530     0.3540    -0.3330 ca         1 6ZC       0.195100
     20 C7           2.6250     2.9050     0.4460 c          1 6ZC       0.672100
     21 C8           2.6290     4.2200    -0.2900 c3         1 6ZC      -0.176100
     22 O3           4.3130    -0.1890    -1.0660 oh         1 6ZC      -0.586800
     23 H1           0.6910     0.7140     1.4690 h2         1 6ZC       0.105700
     24 H2           3.0540     0.4440     1.0980 h1         1 6ZC       0.108700
     25 H3           2.3770    -0.4970    -1.7240 h1         1 6ZC       0.057700
     26 H4           3.5040    -1.9880     0.6740 h1         1 6ZC       0.056700
     27 H5           0.7870    -2.2430    -0.7020 h1         1 6ZC       0.078700
     28 H6           1.7210    -4.3310     0.2720 h1         1 6ZC       0.026700
     29 H7           1.8860    -3.5220     1.8320 h1         1 6ZC       0.026700
     30 H8           2.3040     1.9380    -1.3120 hn         1 6ZC       0.324500
     31 H9           3.7310    -3.5870    -0.7880 ho         1 6ZC       0.415000
     32 H10         -0.1380    -4.6480     1.6200 ho         1 6ZC       0.409000
     33 H12         -1.3220     1.0990    -2.3410 ha         1 6ZC       0.160000
     34 H13         -3.7390    -0.1540     1.7780 ha         1 6ZC       0.169000
     35 H14         -1.3350    -0.4020     1.6930 ha         1 6ZC       0.160000
     36 H15          3.5860     4.7170    -0.1330 hc         1 6ZC       0.063033
     37 H16          2.4650     4.1220    -1.3610 hc         1 6ZC       0.063033
     38 H17          1.8550     4.8680     0.1210 hc         1 6ZC       0.063033
     39 H18          4.6560    -0.8140    -1.7140 ho         1 6ZC       0.422000
     40 H11         -3.7590     1.3130    -2.2670 ha         1 6ZC       0.169000
     41 O7           2.7670     2.8420     1.6590 o          1 6ZC      -0.607100
     42 N1          -5.3440     0.7320    -0.1760 no         1 6ZC       0.321200
@<TRIPOS>BOND
     1     1     2 1   
     2     1     8 1   
     3     1    10 1   
     4     1    23 1   
     5     2     3 1   
     6     2     7 1   
     7     2    24 1   
     8     3     4 1   
     9     3    22 1   
    10     3    25 1   
    11     4     5 1   
    12     4     9 1   
    13     4    26 1   
    14     5     6 1   
    15     5    10 1   
    16     5    27 1   
    17     6    11 1   
    18     6    28 1   
    19     6    29 1   
    20     7    20 1   
    21     7    30 1   
    22     8    19 1   
    23     9    31 1   
    24    11    32 1   
    25    12    42 1   
    26    13    42 1   
    27    14    15 ar  
    28    14    17 ar  
    29    14    42 1   
    30    15    16 ar  
    31    15    40 1   
    32    16    19 ar  
    33    16    33 1   
    34    17    18 ar  
    35    17    34 1   
    36    18    19 ar  
    37    18    35 1   
    38    20    21 1   
    39    20    41 2   
    40    21    36 1   
    41    21    37 1   
    42    21    38 1   
    43    22    39 1   
@<TRIPOS>SUBSTRUCTURE
     1 6ZC         1 TEMP              0 ****  ****    0 ROOT
