@<TRIPOS>MOLECULE
6ZC
   42    43     1     0     0
SMALL
No Charge or Current Charge


@<TRIPOS>ATOM
      1 C1           1.0760     0.2470     0.6420 c6         1 6ZC       0.367300
      2 C2           2.5560     0.5680     0.2630 c6         1 6ZC       0.098700
      3 C3           3.0420    -0.4670    -0.7950 c6         1 6ZC       0.162300
      4 C4           2.8570    -1.9220    -0.2740 c6         1 6ZC       0.103300
      5 C5           1.3600    -2.1310     0.1190 c6         1 6ZC       0.140300
      6 C6           1.0840    -3.5400     0.7400 c3         1 6ZC       0.169600
      7 N2           2.7260     1.9570    -0.2270 ns         1 6ZC      -0.491900
      8 O1           0.1930     0.4690    -0.4800 os         1 6ZC      -0.379100
      9 O4           3.2960    -2.8590    -1.2840 oh         1 6ZC      -0.720000
     10 O5           0.9650    -1.1250     1.0900 os         1 6ZC      -0.445000
     11 O6          -0.2810    -3.7190     1.1640 oh         1 6ZC      -0.704000
     12 O8          -6.1410     0.5000    -1.1900 o          1 6ZC      -0.406500
     13 O2          -6.0360     0.1670     0.9640 o          1 6ZC      -0.406500
     14 C12         -4.0080     0.3730    -0.2090 ca         1 6ZC      -0.222200
     15 C11         -3.3520     0.5740    -1.4450 ca         1 6ZC      -0.009000
     16 C10         -1.9480     0.5990    -1.5020 ca         1 6ZC      -0.180500
     17 C13         -3.2330     0.1980     0.9610 ca         1 6ZC      -0.009000
     18 C14         -1.8290     0.2260     0.8940 ca         1 6ZC      -0.180500
     19 C9          -1.1800     0.4240    -0.3430 ca         1 6ZC       0.195100
     20 C7           2.6450     3.0860     0.5490 c          1 6ZC       0.605100
     21 C8           2.8990     4.3940    -0.1860 c3         1 6ZC      -0.176100
     22 O3           4.4200    -0.2520    -1.1440 oh         1 6ZC      -0.649000
     23 H1           0.7870     0.9210     1.4630 h2         1 6ZC       0.105700
     24 H2           3.1670     0.4490     1.1700 h1         1 6ZC       0.108700
     25 H3           2.4190    -0.3510    -1.6950 h1         1 6ZC       0.057700
     26 H4           3.4670    -2.0390     0.6360 h1         1 6ZC       0.056700
     27 H5           0.7310    -2.0300    -0.7780 h1         1 6ZC       0.078700
     28 H6           1.3420    -4.3040    -0.0060 h1         1 6ZC       0.026700
     29 H7           1.7620    -3.6760     1.5940 h1         1 6ZC       0.026700
     30 H8           2.9720     2.0930    -1.2000 hn         1 6ZC       0.324500
     31 H9           3.5450    -3.6990    -0.8300 ho         1 6ZC       0.514000
     32 H10         -0.3320    -4.5990     1.6060 ho         1 6ZC       0.508000
     33 H12         -1.4500     0.7550    -2.4550 ha         1 6ZC       0.142000
     34 H13         -3.7100     0.0410     1.9280 ha         1 6ZC       0.151000
     35 H14         -1.2680     0.0860     1.8130 ha         1 6ZC       0.142000
     36 H15          3.8760     4.3430    -0.6790 hc         1 6ZC       0.063033
     37 H16          2.2120     4.4640    -1.0370 hc         1 6ZC       0.063033
     38 H17          2.8210     5.2680     0.4700 hc         1 6ZC       0.063033
     39 H18          4.6940    -1.0880    -1.5880 ho         1 6ZC       0.461000
     40 H11         -3.9200     0.7120    -2.3640 ha         1 6ZC       0.151000
     41 O7           2.3820     3.0370     1.7410 o          1 6ZC      -0.607100
     42 N1          -5.5040     0.3440    -0.1400 no         1 6ZC       0.701200
@<TRIPOS>BOND
     1     1     2 1   
     2     1     8 1   
     3     1    10 1   
     4     1    23 1   
     5     2     3 1   
     6     2     7 1   
     7     2    24 1   
     8     3     4 1   
     9     3    22 1   
    10     3    25 1   
    11     4     5 1   
    12     4     9 1   
    13     4    26 1   
    14     5     6 1   
    15     5    10 1   
    16     5    27 1   
    17     6    11 1   
    18     6    28 1   
    19     6    29 1   
    20     7    20 1   
    21     7    30 1   
    22     8    19 1   
    23     9    31 1   
    24    11    32 1   
    25    12    42 1   
    26    13    42 1   
    27    14    15 ar  
    28    14    17 ar  
    29    14    42 1   
    30    15    16 ar  
    31    15    40 1   
    32    16    19 ar  
    33    16    33 1   
    34    17    18 ar  
    35    17    34 1   
    36    18    19 ar  
    37    18    35 1   
    38    20    21 1   
    39    20    41 2   
    40    21    36 1   
    41    21    37 1   
    42    21    38 1   
    43    22    39 1   
@<TRIPOS>SUBSTRUCTURE
     1 6ZC         1 TEMP              0 ****  ****    0 ROOT
