@<TRIPOS>MOLECULE
6ZD
   57    59     1     0     0
SMALL
No Charge or Current Charge


@<TRIPOS>ATOM
      1 C10          3.7710    -1.1520    -1.0840 c5         1 6ZD       0.061300
      2 C17          0.7110     2.0070    -0.9400 cc         1 6ZD       0.109500
      3 C20          3.1290     3.1170    -0.1860 cc         1 6ZD       0.903100
      4 C28         -2.8200     0.1450     1.0700 c3         1 6ZD       0.150800
      5 O01         -3.6740    -2.6370     0.5200 o          1 6ZD      -0.529000
      6 S02         -2.5780    -2.5140     1.4810 s6         1 6ZD       1.208100
      7 C03         -1.0500    -2.4510     0.6680 c3         1 6ZD      -0.693400
      8 P04         -0.7130    -4.1420     0.2690 p5         1 6ZD       1.423400
      9 C06          1.6910    -3.3120    -0.4370 c3         1 6ZD       0.214600
     10 C07          2.5730    -3.1150    -1.7060 c5         1 6ZD       0.157300
     11 C08          4.0340    -2.6520    -1.4040 c5         1 6ZD       0.111300
     12 O09          4.9080    -2.7820    -2.5350 oh         1 6ZD      -0.701000
     13 O11          4.9720    -0.3520    -1.1680 oh         1 6ZD      -0.733000
     14 C12          2.6820    -0.7940    -2.1640 c5         1 6ZD       0.320300
     15 N13          1.6800     0.1820    -1.7520 na         1 6ZD      -0.212500
     16 C14          0.2880     0.1090    -1.8890 cd         1 6ZD       0.448400
     17 N15         -0.3190     1.2080    -1.3950 nc         1 6ZD      -0.629000
     18 C16          1.8730     1.4060    -1.1940 cd         1 6ZD       0.193000
     19 C18          0.7670     3.3120    -0.2420 c          1 6ZD       0.674000
     20 N19          2.0520     3.7850     0.0860 nd         1 6ZD      -0.796100
     21 N22          3.0870     1.9210    -0.7950 na         1 6ZD      -0.920200
     22 O23         -0.2130     3.9760     0.0690 o          1 6ZD      -0.589100
     23 O24          2.0440    -2.0420    -2.5310 os         1 6ZD      -0.411000
     24 O25         -0.1410    -4.8650     1.4390 o          1 6ZD      -0.789500
     25 O26         -1.8730    -4.8330    -0.3580 o          1 6ZD      -0.789500
     26 N27         -2.6410    -0.9520     2.0460 n7         1 6ZD      -0.854300
     27 C29         -2.7170     1.5290     1.7540 c3         1 6ZD       0.106000
     28 N30         -2.6910     2.6380     0.7910 ns         1 6ZD      -0.506900
     29 C31         -3.7510     3.0340     0.0080 c          1 6ZD       0.595100
     30 C32         -3.4250     4.1640    -0.9840 c3         1 6ZD       0.028600
     31 O34         -4.8570     2.5180     0.1090 o          1 6ZD      -0.591100
     32 O35         -2.5180    -3.3540     2.6760 o          1 6ZD      -0.529000
     33 H1           3.3330    -1.0540    -0.0800 h1         1 6ZD       0.075700
     34 H2          -2.0560     0.0950     0.2850 h1         1 6ZD       0.067700
     35 H3          -3.7990     0.0670     0.5770 h1         1 6ZD       0.067700
     36 H4          -1.1510    -1.8590    -0.2420 h1         1 6ZD       0.095700
     37 H5          -0.2910    -2.0700     1.3540 h1         1 6ZD       0.095700
     38 H6           1.5620    -2.3540     0.0800 h1         1 6ZD       0.024200
     39 H7           2.2050    -4.0020     0.2450 h1         1 6ZD       0.024200
     40 H8           2.5640    -4.0540    -2.2750 h1         1 6ZD       0.117700
     41 H9           4.4510    -3.1820    -0.5350 h1         1 6ZD       0.065700
     42 H10          5.4080    -1.9300    -2.5640 ho         1 6ZD       0.507000
     43 H11          5.5620    -0.6130    -0.4150 ho         1 6ZD       0.518000
     44 H12          3.1660    -0.3700    -3.0530 h2         1 6ZD       0.091700
     45 H13         -0.2010    -0.7500    -2.3350 h5         1 6ZD       0.100100
     46 H14          4.2550     4.5370     0.4100 hn         1 6ZD       0.500000
     47 H15          5.0230     3.3600    -0.5410 hn         1 6ZD       0.500000
     48 H16          3.9460     1.3920    -0.9160 hn         1 6ZD       0.523000
     49 H18         -1.7040    -0.8770     2.4350 hn         1 6ZD       0.454000
     50 H19         -3.5640     1.6650     2.4390 h1         1 6ZD       0.054700
     51 H20         -1.7930     1.5730     2.3450 h1         1 6ZD       0.054700
     52 H21         -1.8060     3.1180     0.6290 hn         1 6ZD       0.354500
     53 H22         -3.0600     5.0300    -0.4190 h1         1 6ZD       0.086200
     54 H23         -2.6300     3.8180    -1.6550 h1         1 6ZD       0.086200
     55 Cl1         -4.8360     4.7150    -2.0140 cl         1 6ZD      -0.263000
     56 O05          0.4250    -3.8570    -0.8360 os         1 6ZD      -0.579400
     57 N21          4.2980     3.5690     0.1280 nv         1 6ZD      -1.055200
@<TRIPOS>BOND
     1     1    11 1   
     2     1    13 1   
     3     1    14 1   
     4     1    33 1   
     5     2    17 1   
     6     2    18 2   
     7     2    19 1   
     8     3    20 2   
     9     3    21 1   
    10     3    57 1   
    11     4    26 1   
    12     4    27 1   
    13     4    34 1   
    14     4    35 1   
    15     5     6 2   
    16     6     7 1   
    17     6    26 1   
    18     6    32 2   
    19     7     8 1   
    20     7    36 1   
    21     7    37 1   
    22     8    24 1   
    23     8    25 1   
    24     8    56 1   
    25     9    10 1   
    26     9    38 1   
    27     9    39 1   
    28     9    56 1   
    29    10    11 1   
    30    10    23 1   
    31    10    40 1   
    32    11    12 1   
    33    11    41 1   
    34    12    42 1   
    35    13    43 1   
    36    14    15 1   
    37    14    23 1   
    38    14    44 1   
    39    15    16 1   
    40    15    18 1   
    41    16    17 2   
    42    16    45 1   
    43    18    21 1   
    44    19    20 1   
    45    19    22 2   
    46    21    48 1   
    47    26    49 1   
    48    27    28 1   
    49    27    50 1   
    50    27    51 1   
    51    28    29 1   
    52    28    52 1   
    53    29    30 1   
    54    29    31 2   
    55    30    53 1   
    56    30    54 1   
    57    30    55 1   
    58    46    57 1   
    59    47    57 1   
@<TRIPOS>SUBSTRUCTURE
     1 6ZD         1 TEMP              0 ****  ****    0 ROOT
