@<TRIPOS>MOLECULE
6ZD
   57    59     1     0     0
SMALL
abcg2


@<TRIPOS>ATOM
      1 C10          3.7490    -1.1260    -1.2140 c5         1 6ZD       0.061300
      2 C17          0.7940     1.9720    -0.6520 cc         1 6ZD       0.109500
      3 C20          3.1540     3.2010    -0.1750 cc         1 6ZD       0.903100
      4 C28         -2.8090     0.2140     1.1690 c3         1 6ZD       0.150800
      5 O01         -3.8010    -2.6590     0.8500 o          1 6ZD      -0.529000
      6 S02         -2.6430    -2.3880     1.6860 s6         1 6ZD       1.208100
      7 C03         -1.1830    -2.4410     0.6680 c3         1 6ZD      -0.693400
      8 P04         -0.6560    -4.1630     0.2120 p5         1 6ZD       1.423400
      9 C06          1.7580    -3.4090    -0.5830 c3         1 6ZD       0.214600
     10 C07          2.5230    -3.0320    -1.8370 c5         1 6ZD       0.157300
     11 C08          3.9540    -2.6060    -1.5500 c5         1 6ZD       0.111300
     12 O09          4.7020    -2.7640    -2.7250 oh         1 6ZD      -0.701000
     13 O11          4.8730    -0.3110    -1.4210 oh         1 6ZD      -0.733000
     14 C12          2.6320    -0.7390    -2.1960 c5         1 6ZD       0.320300
     15 N13          1.6920     0.2200    -1.6140 na         1 6ZD      -0.212500
     16 C14          0.3180     0.1330    -1.5960 cd         1 6ZD       0.448400
     17 N15         -0.2410     1.1570    -1.0270 nc         1 6ZD      -0.629000
     18 C16          1.9820     1.4020    -1.0260 cd         1 6ZD       0.193000
     19 C18          0.8180     3.2260     0.0600 c          1 6ZD       0.674000
     20 N19          2.0540     3.7830     0.2310 nd         1 6ZD      -0.796100
     21 N22          3.1840     1.9920    -0.8070 na         1 6ZD      -0.920200
     22 O23         -0.1880     3.7850     0.5070 o          1 6ZD      -0.589100
     23 O24          1.9430    -1.9030    -2.5030 os         1 6ZD      -0.411000
     24 O25          0.0470    -4.7850     1.3770 o          1 6ZD      -0.789500
     25 O26         -1.7900    -4.8290    -0.4960 o          1 6ZD      -0.789500
     26 N27         -2.7830    -0.8180     2.2030 n7         1 6ZD      -0.854300
     27 C29         -3.0470     1.5860     1.7940 c3         1 6ZD       0.106000
     28 N30         -2.8230     2.6280     0.8200 ns         1 6ZD      -0.506900
     29 C31         -3.7060     2.9080    -0.1480 c          1 6ZD       0.595100
     30 C32         -3.1150     3.8110    -1.2220 c3         1 6ZD       0.028600
     31 O34         -4.8460     2.4810    -0.1950 o          1 6ZD      -0.591100
     32 O35         -2.4250    -3.1890     2.8810 o          1 6ZD      -0.529000
     33 H1           3.3870    -1.0420    -0.1830 h1         1 6ZD       0.075700
     34 H2          -1.8740     0.2580     0.6030 h1         1 6ZD       0.067700
     35 H3          -3.6140    -0.0080     0.4690 h1         1 6ZD       0.067700
     36 H4          -1.4130    -1.8750    -0.2350 h1         1 6ZD       0.095700
     37 H5          -0.3920    -1.9200     1.2130 h1         1 6ZD       0.095700
     38 H6           1.7600    -2.5790     0.1360 h1         1 6ZD       0.024200
     39 H7           2.2780    -4.2450    -0.1050 h1         1 6ZD       0.024200
     40 H8           2.4940    -3.8720    -2.5350 h1         1 6ZD       0.117700
     41 H9           4.3910    -3.1540    -0.7060 h1         1 6ZD       0.065700
     42 H10          5.5060    -2.2380    -2.6520 ho         1 6ZD       0.507000
     43 H11          5.4730    -0.4130    -0.6720 ho         1 6ZD       0.518000
     44 H12          3.0490    -0.2890    -3.1040 h2         1 6ZD       0.091700
     45 H13         -0.1950    -0.7130    -2.0230 h5         1 6ZD       0.100100
     46 H14          4.3330     4.7200     0.4180 hn         1 6ZD       0.500000
     47 H15          5.1700     3.4900    -0.4300 hn         1 6ZD       0.500000
     48 H16          4.0540     1.5210    -1.0440 hn         1 6ZD       0.523000
     49 H18         -2.0970    -0.6250     2.9270 hn         1 6ZD       0.454000
     50 H19         -4.0540     1.6550     2.2050 h1         1 6ZD       0.054700
     51 H20         -2.3480     1.7510     2.6150 h1         1 6ZD       0.054700
     52 H21         -1.8650     2.9630     0.7060 hn         1 6ZD       0.354500
     53 H22         -2.5690     4.6450    -0.7860 h1         1 6ZD       0.086200
     54 H23         -2.4180     3.2300    -1.8270 h1         1 6ZD       0.086200
     55 CL1         -4.3740     4.4600    -2.2930 cl         1 6ZD      -0.263000
     56 O05          0.4460    -3.7670    -0.9540 os         1 6ZD      -0.579400
     57 N21          4.3380     3.7820     0.0550 nv         1 6ZD      -1.055200
@<TRIPOS>BOND
     1     1    11 1   
     2     1    13 1   
     3     1    14 1   
     4     1    33 1   
     5     2    17 1   
     6     2    18 2   
     7     2    19 1   
     8     3    20 2   
     9     3    21 1   
    10     3    57 1   
    11     4    26 1   
    12     4    27 1   
    13     4    34 1   
    14     4    35 1   
    15     5     6 2   
    16     6     7 1   
    17     6    26 1   
    18     6    32 2   
    19     7     8 1   
    20     7    36 1   
    21     7    37 1   
    22     8    24 1   
    23     8    25 1   
    24     8    56 1   
    25     9    10 1   
    26     9    38 1   
    27     9    39 1   
    28     9    56 1   
    29    10    11 1   
    30    10    23 1   
    31    10    40 1   
    32    11    12 1   
    33    11    41 1   
    34    12    42 1   
    35    13    43 1   
    36    14    15 1   
    37    14    23 1   
    38    14    44 1   
    39    15    16 1   
    40    15    18 1   
    41    16    17 2   
    42    16    45 1   
    43    18    21 1   
    44    19    20 1   
    45    19    22 2   
    46    21    48 1   
    47    26    49 1   
    48    27    28 1   
    49    27    50 1   
    50    27    51 1   
    51    28    29 1   
    52    28    52 1   
    53    29    30 1   
    54    29    31 2   
    55    30    53 1   
    56    30    54 1   
    57    30    55 1   
    58    46    57 1   
    59    47    57 1   
@<TRIPOS>SUBSTRUCTURE
     1 6ZD         1 TEMP              0 ****  ****    0 ROOT
