@<TRIPOS>MOLECULE
6ZE
   38    40     1     0     0
SMALL
abcg2


@<TRIPOS>ATOM
      1 C2          -0.0280     1.0700     0.0910 ca         1 6ZE       0.182100
      2 C4          -1.0200    -1.1280     0.1380 ca         1 6ZE      -0.007000
      3 C8          -4.3950     0.0860    -0.1340 cc         1 6ZE       0.037900
      4 C11          2.3220     1.4250     0.2310 c          1 6ZE       0.673300
      5 C13          1.4650    -0.8560     0.3110 cc         1 6ZE       0.036600
      6 C15          4.5860    -0.7860    -0.8720 c3         1 6ZE      -0.072400
      7 C16          6.0470    -1.1890    -0.7450 c3         1 6ZE      -0.089100
      8 O18          3.1980     2.2560     0.2130 o          1 6ZE      -0.487000
      9 O10          1.0540     1.8790     0.1170 os         1 6ZE      -0.332200
     10 C12          2.5260    -0.0130     0.3620 cd         1 6ZE      -0.217400
     11 C17          1.6140    -2.3420     0.3860 c3         1 6ZE      -0.066900
     12 C3           0.1220    -0.3230     0.1770 ca         1 6ZE      -0.163800
     13 C5          -2.2640    -0.5340     0.0250 ca         1 6ZE      -0.139800
     14 C9          -3.6210    -1.0170    -0.0340 cd         1 6ZE      -0.121400
     15 C20         -4.0360    -2.4450     0.0100 c3         1 6ZE      -0.020900
     16 C19         -5.8570     0.2850    -0.2260 c3         1 6ZE      -0.031900
     17 O7          -3.6390     1.2330    -0.1480 os         1 6ZE      -0.172200
     18 C6          -2.3540     0.8600    -0.0510 ca         1 6ZE       0.110100
     19 C1          -1.2600     1.6950    -0.0230 ca         1 6ZE      -0.137000
     20 H1          -0.9340    -2.2040     0.1980 ha         1 6ZE       0.124000
     21 H2           4.0290    -1.3240     1.1410 hc         1 6ZE       0.056700
     22 H3           4.5400     0.3300     0.9640 hc         1 6ZE       0.056700
     23 H4           4.0180    -1.5900    -1.3490 hc         1 6ZE       0.042200
     24 H5           4.4970     0.0820    -1.5300 hc         1 6ZE       0.042200
     25 H6           6.6430    -0.3820    -0.3160 hc         1 6ZE       0.033367
     26 H7           6.1630    -2.0620    -0.1000 hc         1 6ZE       0.033367
     27 H8           6.4770    -1.4370    -1.7150 hc         1 6ZE       0.033367
     28 H9           1.0560    -2.7480     1.2320 hc         1 6ZE       0.053367
     29 H10          1.2170    -2.8130    -0.5160 hc         1 6ZE       0.053367
     30 H11          2.6460    -2.6610     0.4890 hc         1 6ZE       0.053367
     31 H12         -3.6230    -3.0030    -0.8320 hc         1 6ZE       0.043367
     32 H13         -3.6860    -2.9310     0.9220 hc         1 6ZE       0.043367
     33 H14         -5.1180    -2.5570    -0.0240 hc         1 6ZE       0.043367
     34 H15         -6.2240     0.9150     0.5850 hc         1 6ZE       0.058700
     35 H16         -6.1370     0.7610    -1.1660 hc         1 6ZE       0.058700
     36 H17         -6.3770    -0.6680    -0.1680 hc         1 6ZE       0.058700
     37 H18         -1.3410     2.7720    -0.0820 ha         1 6ZE       0.155000
     38 C14          3.9560    -0.4550     0.4830 c3         1 6ZE      -0.026200
@<TRIPOS>BOND
     1     1     9 1   
     2     1    12 ar  
     3     1    19 ar  
     4     2    12 ar  
     5     2    13 ar  
     6     2    20 1   
     7     3    14 2   
     8     3    16 1   
     9     3    17 1   
    10     4     8 2   
    11     4     9 1   
    12     4    10 1   
    13     5    10 2   
    14     5    11 1   
    15     5    12 1   
    16     6     7 1   
    17     6    23 1   
    18     6    24 1   
    19     6    38 1   
    20     7    25 1   
    21     7    26 1   
    22     7    27 1   
    23    10    38 1   
    24    11    28 1   
    25    11    29 1   
    26    11    30 1   
    27    13    14 1   
    28    13    18 ar  
    29    14    15 1   
    30    15    31 1   
    31    15    32 1   
    32    15    33 1   
    33    16    34 1   
    34    16    35 1   
    35    16    36 1   
    36    17    18 1   
    37    18    19 ar  
    38    19    37 1   
    39    21    38 1   
    40    22    38 1   
@<TRIPOS>SUBSTRUCTURE
     1 6ZE         1 TEMP              0 ****  ****    0 ROOT
