@<TRIPOS>MOLECULE
6ZE
   38    40     1     0     0
SMALL
No Charge or Current Charge


@<TRIPOS>ATOM
      1 C2          -0.0210     1.0990     0.0880 ca         1 6ZE       0.182100
      2 C4          -1.0600    -1.1060     0.1120 ca         1 6ZE      -0.007000
      3 C8          -4.4680     0.1470    -0.1010 cc         1 6ZE       0.037900
      4 C11          2.3470     1.4330     0.2990 c          1 6ZE       0.673300
      5 C13          1.4500    -0.9370     0.2180 cc         1 6ZE       0.036600
      6 C15          4.7020    -0.6810    -0.8340 c3         1 6ZE      -0.072400
      7 C16          6.1540    -1.1730    -0.6790 c3         1 6ZE      -0.089100
      8 O18          3.2800     2.2220     0.3730 o          1 6ZE      -0.487000
      9 O10          1.0780     1.8990     0.1440 os         1 6ZE      -0.332200
     10 C12          2.5250    -0.0560     0.3430 cd         1 6ZE      -0.217400
     11 C17          1.6050    -2.4450     0.1710 c3         1 6ZE      -0.066900
     12 C3           0.1190    -0.3110     0.1350 ca         1 6ZE      -0.163800
     13 C5          -2.2980    -0.4570     0.0240 ca         1 6ZE      -0.139800
     14 C9          -3.6370    -0.9570    -0.0210 cd         1 6ZE      -0.121400
     15 C20         -4.0460    -2.4070     0.0180 c3         1 6ZE      -0.020900
     16 C19         -5.9670     0.2420    -0.1720 c3         1 6ZE      -0.031900
     17 O7          -3.7220     1.3260    -0.1110 os         1 6ZE      -0.172200
     18 C6          -2.4140     0.9010    -0.0330 ca         1 6ZE       0.110100
     19 C1          -1.2840     1.7180    -0.0010 ca         1 6ZE      -0.137000
     20 H1          -1.0300    -2.1900     0.1660 ha         1 6ZE       0.124000
     21 H2           4.0170    -1.4540     1.0760 hc         1 6ZE       0.056700
     22 H3           4.5340     0.1940     1.1390 hc         1 6ZE       0.056700
     23 H4           4.1500    -1.3910    -1.4620 hc         1 6ZE       0.042200
     24 H5           4.7050     0.2780    -1.3670 hc         1 6ZE       0.042200
     25 H6           6.7430    -0.4640    -0.0850 hc         1 6ZE       0.033367
     26 H7           6.1820    -2.1500    -0.1820 hc         1 6ZE       0.033367
     27 H8           6.6290    -1.2740    -1.6620 hc         1 6ZE       0.033367
     28 H9           1.3180    -2.8950     1.1280 hc         1 6ZE       0.053367
     29 H10          0.9760    -2.8810    -0.6140 hc         1 6ZE       0.053367
     30 H11          2.6260    -2.7650    -0.0580 hc         1 6ZE       0.053367
     31 H12         -3.4410    -3.0050    -0.6740 hc         1 6ZE       0.043367
     32 H13         -3.9150    -2.8230     1.0240 hc         1 6ZE       0.043367
     33 H14         -5.0970    -2.5380    -0.2640 hc         1 6ZE       0.043367
     34 H15         -6.3000     1.2860    -0.1430 hc         1 6ZE       0.058700
     35 H16         -6.3400    -0.2070    -1.0990 hc         1 6ZE       0.058700
     36 H17         -6.4290    -0.2840     0.6710 hc         1 6ZE       0.058700
     37 H18         -1.3760     2.7990    -0.0360 ha         1 6ZE       0.155000
     38 C14          3.9700    -0.5120     0.5160 c3         1 6ZE      -0.026200
@<TRIPOS>BOND
     1     1     9 1   
     2     1    12 ar  
     3     1    19 ar  
     4     2    12 ar  
     5     2    13 ar  
     6     2    20 1   
     7     3    14 2   
     8     3    16 1   
     9     3    17 1   
    10     4     8 2   
    11     4     9 1   
    12     4    10 1   
    13     5    10 2   
    14     5    11 1   
    15     5    12 1   
    16     6     7 1   
    17     6    23 1   
    18     6    24 1   
    19     6    38 1   
    20     7    25 1   
    21     7    26 1   
    22     7    27 1   
    23    10    38 1   
    24    11    28 1   
    25    11    29 1   
    26    11    30 1   
    27    13    14 1   
    28    13    18 ar  
    29    14    15 1   
    30    15    31 1   
    31    15    32 1   
    32    15    33 1   
    33    16    34 1   
    34    16    35 1   
    35    16    36 1   
    36    17    18 1   
    37    18    19 ar  
    38    19    37 1   
    39    21    38 1   
    40    22    38 1   
@<TRIPOS>SUBSTRUCTURE
     1 6ZE         1 TEMP              0 ****  ****    0 ROOT
