@<TRIPOS>MOLECULE
6ZF
   52    55     1     0     0
SMALL
abcg2


@<TRIPOS>ATOM
      1 N1           6.0460     1.8060   -31.3210 nh         1 6ZF      -0.788300
      2 N3          -2.6640     1.6050   -29.7090 nb         1 6ZF      -0.641000
      3 C4           3.7210     2.4960   -31.1780 ca         1 6ZF      -0.244000
      4 C5           2.4580     2.2220   -30.7130 ca         1 6ZF      -0.012000
      5 C6           2.2110     1.0830   -29.9270 cp         1 6ZF      -0.274500
      6 C7           3.3240     0.2860   -29.6540 ca         1 6ZF       0.430900
      7 C8           0.8770     0.7360   -29.4090 cp         1 6ZF       0.504500
      8 C10         -1.5100     1.0000   -29.3090 ca         1 6ZF       0.302000
      9 C13         -1.5570    -0.0320   -28.3410 ca         1 6ZF       0.111000
     10 C15          0.8330    -2.4030   -26.6430 c3         1 6ZF       0.233800
     11 C17          1.6860    -4.2790   -25.2130 c6         1 6ZF      -0.069400
     12 C20          0.1830    -2.5490   -24.2000 c6         1 6ZF       0.161800
     13 C2           6.3860     3.0350   -32.0180 c3         1 6ZF       0.219600
     14 C1           7.1320     0.9640   -30.8400 c3         1 6ZF       0.219600
     15 C3           4.7800     1.6070   -30.8630 ca         1 6ZF       0.628900
     16 N2           4.5580     0.5230   -30.0930 nb         1 6ZF      -0.760000
     17 N7           0.8460    -0.2680   -28.4840 nb         1 6ZF      -0.794000
     18 C14         -0.3030    -0.6500   -27.9590 ca         1 6ZF       0.676900
     19 N4          -2.7080    -0.4450   -27.7910 nb         1 6ZF      -0.619000
     20 C12         -3.8130     0.1550   -28.1910 ca         1 6ZF       0.261900
     21 C11         -3.7800     1.1820   -29.1560 ca         1 6ZF       0.321900
     22 C9          -0.2650     1.3810   -29.8450 ca         1 6ZF      -0.214000
     23 N5          -0.3300    -1.6290   -27.0390 nu         1 6ZF      -0.921100
     24 C16          0.5140    -3.3280   -25.4760 c6         1 6ZF      -0.082700
     25 N6          -0.1050    -3.4730   -23.1040 n7         1 6ZF      -0.868400
     26 C19          1.0510    -4.3120   -22.7810 c6         1 6ZF       0.157800
     27 C18          1.4240    -5.1610   -23.9910 c6         1 6ZF      -0.073400
     28 H1           3.8940     3.3840   -31.7660 ha         1 6ZF       0.121000
     29 H2           1.6600     2.9120   -30.9520 ha         1 6ZF       0.117000
     30 H3           3.1990    -0.5990   -29.0430 h4         1 6ZF       0.036100
     31 H4           1.1960    -2.9930   -27.4930 h1         1 6ZF       0.054200
     32 H5           1.6390    -1.7180   -26.3690 h1         1 6ZF       0.054200
     33 H6           1.8720    -4.8940   -26.0970 hc         1 6ZF       0.041700
     34 H7           2.5910    -3.6840   -25.0420 hc         1 6ZF       0.041700
     35 H8           1.0370    -1.8890   -23.9690 h1         1 6ZF       0.034700
     36 H9          -0.6900    -1.9120   -24.3520 h1         1 6ZF       0.034700
     37 H10          7.4080     2.9600   -32.3790 h1         1 6ZF       0.041200
     38 H11          5.7340     3.1900   -32.8780 h1         1 6ZF       0.041200
     39 H12          6.3120     3.9130   -31.3650 h1         1 6ZF       0.041200
     40 H13          6.8490    -0.0850   -30.8860 h1         1 6ZF       0.041200
     41 H14          8.0020     1.1270   -31.4730 h1         1 6ZF       0.041200
     42 H15          7.4030     1.1980   -29.8040 h1         1 6ZF       0.041200
     43 H16         -4.7550    -0.1640   -27.7600 h4         1 6ZF       0.031100
     44 H17         -4.7050     1.6570   -29.4680 h4         1 6ZF       0.028100
     45 H18         -0.2410     2.1570   -30.5950 ha         1 6ZF       0.138000
     46 H19         -1.2440    -1.9340   -26.7400 hn         1 6ZF       0.517000
     47 H20         -0.3640    -3.9300   -25.7390 hc         1 6ZF       0.063700
     48 H21         -0.3820    -2.9460   -22.2840 hn         1 6ZF       0.412000
     49 H23          0.7950    -4.9470   -21.9310 h1         1 6ZF       0.030200
     50 H24          1.9250    -3.7040   -22.4900 h1         1 6ZF       0.030200
     51 H25          0.6030    -5.8510   -24.2080 hc         1 6ZF       0.048200
     52 H26          2.3070    -5.7630   -23.7620 hc         1 6ZF       0.048200
@<TRIPOS>BOND
     1     1    13 1   
     2     1    14 1   
     3     1    15 1   
     4     2     8 ar  
     5     2    21 ar  
     6     3     4 ar  
     7     3    15 ar  
     8     3    28 1   
     9     4     5 ar  
    10     4    29 1   
    11     5     6 ar  
    12     5     7 1   
    13     6    16 ar  
    14     6    30 1   
    15     7    17 ar  
    16     7    22 ar  
    17     8     9 ar  
    18     8    22 ar  
    19     9    18 ar  
    20     9    19 ar  
    21    10    23 1   
    22    10    24 1   
    23    10    31 1   
    24    10    32 1   
    25    11    24 1   
    26    11    27 1   
    27    11    33 1   
    28    11    34 1   
    29    12    24 1   
    30    12    25 1   
    31    12    35 1   
    32    12    36 1   
    33    13    37 1   
    34    13    38 1   
    35    13    39 1   
    36    14    40 1   
    37    14    41 1   
    38    14    42 1   
    39    15    16 ar  
    40    17    18 ar  
    41    18    23 1   
    42    19    20 ar  
    43    20    21 ar  
    44    20    43 1   
    45    21    44 1   
    46    22    45 1   
    47    23    46 1   
    48    24    47 1   
    49    25    26 1   
    50    25    48 1   
    51    26    27 1   
    52    26    49 1   
    53    26    50 1   
    54    27    51 1   
    55    27    52 1   
@<TRIPOS>SUBSTRUCTURE
     1 6ZF         1 TEMP              0 ****  ****    0 ROOT
