@<TRIPOS>MOLECULE
6ZF
   52    55     1     0     0
SMALL
No Charge or Current Charge


@<TRIPOS>ATOM
      1 N1           6.0930     1.8660   -31.2250 nh         1 6ZF      -0.788300
      2 N3          -2.7270     1.5460   -29.8950 nb         1 6ZF      -0.641000
      3 C4           3.7420     2.6030   -31.0360 ca         1 6ZF      -0.244000
      4 C5           2.4410     2.3370   -30.5900 ca         1 6ZF      -0.012000
      5 C6           2.1830     1.1220   -29.9130 cp         1 6ZF      -0.274500
      6 C7           3.2830     0.2520   -29.7230 ca         1 6ZF       0.430900
      7 C8           0.8270     0.7590   -29.4050 cp         1 6ZF       0.504500
      8 C10         -1.6040     0.9700   -29.3940 ca         1 6ZF       0.302000
      9 C13         -1.6580    -0.0080   -28.3570 ca         1 6ZF       0.111000
     10 C15          0.8490    -2.3160   -26.5860 c3         1 6ZF       0.233800
     11 C17          1.6810    -4.3240   -25.2280 c6         1 6ZF      -0.069400
     12 C20          0.3000    -2.5200   -24.0770 c6         1 6ZF       0.161800
     13 C2           6.4430     2.9560   -32.1650 c3         1 6ZF       0.219600
     14 C1           7.1990     0.9850   -30.7700 c3         1 6ZF       0.219600
     15 C3           4.7610     1.6640   -30.8020 ca         1 6ZF       0.628900
     16 N2           4.5360     0.5100   -30.1560 nb         1 6ZF      -0.760000
     17 N7           0.7880    -0.1700   -28.4370 nb         1 6ZF      -0.794000
     18 C14         -0.4010    -0.5290   -27.9370 ca         1 6ZF       0.676900
     19 N4          -2.8560    -0.4150   -27.8150 nb         1 6ZF      -0.619000
     20 C12         -3.9730     0.1710   -28.3250 ca         1 6ZF       0.261900
     21 C11         -3.9080     1.1410   -29.3540 ca         1 6ZF       0.321900
     22 C9          -0.3550     1.3400   -29.9050 ca         1 6ZF      -0.214000
     23 N5          -0.3160    -1.4900   -26.9430 nu         1 6ZF      -0.921100
     24 C16          0.5390    -3.2850   -25.4100 c6         1 6ZF      -0.082700
     25 N6           0.0270    -3.4520   -22.9530 n7         1 6ZF      -0.868400
     26 C19          1.1190    -4.4320   -22.7410 c6         1 6ZF       0.157800
     27 C18          1.3890    -5.2540   -24.0250 c6         1 6ZF      -0.073400
     28 H1           3.9470     3.5370   -31.5470 ha         1 6ZF       0.121000
     29 H2           1.6590     3.0750   -30.7590 ha         1 6ZF       0.117000
     30 H3           3.1610    -0.7040   -29.2140 h4         1 6ZF       0.036100
     31 H4           1.1530    -2.9110   -27.4580 h1         1 6ZF       0.054200
     32 H5           1.6990    -1.6800   -26.3050 h1         1 6ZF       0.054200
     33 H6           1.7980    -4.9250   -26.1410 hc         1 6ZF       0.041700
     34 H7           2.6370    -3.8060   -25.0680 hc         1 6ZF       0.041700
     35 H8           1.1850    -1.9120   -23.8390 h1         1 6ZF       0.034700
     36 H9          -0.5520    -1.8330   -24.1880 h1         1 6ZF       0.034700
     37 H10          7.4570     2.8260   -32.5670 h1         1 6ZF       0.041200
     38 H11          5.7510     2.9660   -33.0180 h1         1 6ZF       0.041200
     39 H12          6.3970     3.9300   -31.6590 h1         1 6ZF       0.041200
     40 H13          7.1110    -0.0110   -31.2230 h1         1 6ZF       0.041200
     41 H14          8.1780     1.4000   -31.0460 h1         1 6ZF       0.041200
     42 H15          7.1860     0.8800   -29.6760 h1         1 6ZF       0.041200
     43 H16         -4.9290    -0.1400   -27.9070 h4         1 6ZF       0.031100
     44 H17         -4.8140     1.5980   -29.7500 h4         1 6ZF       0.028100
     45 H18         -0.3110     2.0720   -30.7020 ha         1 6ZF       0.138000
     46 H19         -1.2360    -1.7850   -26.6180 hn         1 6ZF       0.517000
     47 H20         -0.3780    -3.8280   -25.6770 hc         1 6ZF       0.063700
     48 H21         -0.0980    -2.9050   -22.0920 hn         1 6ZF       0.412000
     49 H23          0.8490    -5.1110   -21.9180 h1         1 6ZF       0.030200
     50 H24          2.0360    -3.9000   -22.4480 h1         1 6ZF       0.030200
     51 H25          0.5190    -5.8870   -24.2460 hc         1 6ZF       0.048200
     52 H26          2.2370    -5.9330   -23.8600 hc         1 6ZF       0.048200
@<TRIPOS>BOND
     1     1    13 1   
     2     1    14 1   
     3     1    15 1   
     4     2     8 ar  
     5     2    21 ar  
     6     3     4 ar  
     7     3    15 ar  
     8     3    28 1   
     9     4     5 ar  
    10     4    29 1   
    11     5     6 ar  
    12     5     7 1   
    13     6    16 ar  
    14     6    30 1   
    15     7    17 ar  
    16     7    22 ar  
    17     8     9 ar  
    18     8    22 ar  
    19     9    18 ar  
    20     9    19 ar  
    21    10    23 1   
    22    10    24 1   
    23    10    31 1   
    24    10    32 1   
    25    11    24 1   
    26    11    27 1   
    27    11    33 1   
    28    11    34 1   
    29    12    24 1   
    30    12    25 1   
    31    12    35 1   
    32    12    36 1   
    33    13    37 1   
    34    13    38 1   
    35    13    39 1   
    36    14    40 1   
    37    14    41 1   
    38    14    42 1   
    39    15    16 ar  
    40    17    18 ar  
    41    18    23 1   
    42    19    20 ar  
    43    20    21 ar  
    44    20    43 1   
    45    21    44 1   
    46    22    45 1   
    47    23    46 1   
    48    24    47 1   
    49    25    26 1   
    50    25    48 1   
    51    26    27 1   
    52    26    49 1   
    53    26    50 1   
    54    27    51 1   
    55    27    52 1   
@<TRIPOS>SUBSTRUCTURE
     1 6ZF         1 TEMP              0 ****  ****    0 ROOT
