@<TRIPOS>MOLECULE
6ZG
   44    46     1     0     0
SMALL
abcg2


@<TRIPOS>ATOM
      1 C10         -1.1020     2.7080     0.0500 ca         1 6ZG       0.299000
      2 C13          0.7760     4.6220     0.0770 ca         1 6ZG       0.266900
      3 C15          0.2740     2.4220     0.0350 ca         1 6ZG       0.113000
      4 C20          4.6070    -1.9890     0.0520 c3         1 6ZG      -0.076400
      5 C21          6.1130    -1.9920    -0.1580 c3         1 6ZG       0.149800
      6 C02         -4.1230    -3.0880    -0.0420 ca         1 6ZG      -0.060300
      7 C03         -2.7620    -3.2030     0.2360 ca         1 6ZG      -0.123500
      8 C04         -1.9340    -2.0930     0.2440 ca         1 6ZG      -0.074000
      9 C05         -2.4370    -0.8180    -0.0200 cp         1 6ZG      -0.156500
     10 C06         -3.7970    -0.7030    -0.3090 ca         1 6ZG      -0.074000
     11 C07         -4.6220    -1.8170    -0.3180 ca         1 6ZG      -0.123500
     12 C08         -1.5380     0.3570     0.0020 cp         1 6ZG       0.483500
     13 C09         -2.0250     1.6430     0.0350 ca         1 6ZG      -0.203000
     14 N11         -1.5240     3.9930     0.0830 nb         1 6ZG      -0.637000
     15 C12         -0.6020     4.9190     0.0950 ca         1 6ZG       0.322900
     16 N14          1.2030     3.3850     0.0490 nb         1 6ZG      -0.621000
     17 C16          0.6720     1.0350     0.0150 ca         1 6ZG       0.676900
     18 N17          1.9770     0.7410     0.0040 nu         1 6ZG      -0.918100
     19 C18          2.4960    -0.6050     0.0900 c3         1 6ZG       0.231800
     20 C19          4.0040    -0.6000    -0.0990 c3         1 6ZG      -0.096400
     21 N22          6.6600    -3.3300     0.0170 n8         1 6ZG      -0.995200
     22 N23         -0.2160     0.0690     0.0010 nb         1 6ZG      -0.788000
     23 H1           1.5110     5.4180     0.0890 h4         1 6ZG       0.030100
     24 H2           4.1410    -2.6700    -0.6690 hc         1 6ZG       0.050200
     25 H3           4.3830    -2.3870     1.0460 hc         1 6ZG       0.050200
     26 H4           6.3350    -1.5510    -1.1400 h1         1 6ZG       0.026700
     27 H5           6.5770    -1.3350     0.5830 h1         1 6ZG       0.026700
     28 H6          -5.2910    -4.5620     0.9940 hc         1 6ZG       0.043033
     29 H7          -5.9450    -4.1060    -0.5740 hc         1 6ZG       0.043033
     30 H8          -4.5320    -5.1580    -0.4720 hc         1 6ZG       0.043033
     31 H9          -2.3400    -4.1780     0.4490 ha         1 6ZG       0.111500
     32 H10         -0.8800    -2.2140     0.4580 ha         1 6ZG       0.123500
     33 H11         -4.2310     0.2590    -0.5510 ha         1 6ZG       0.123500
     34 H12         -5.6720    -1.6920    -0.5520 ha         1 6ZG       0.111500
     35 H13         -3.0820     1.8650     0.0680 ha         1 6ZG       0.142000
     36 H14         -0.9280     5.9530     0.1220 h4         1 6ZG       0.029100
     37 H15          2.6190     1.5130     0.0880 hn         1 6ZG       0.515000
     38 H16          2.2390    -1.0520     1.0560 h1         1 6ZG       0.054200
     39 H17          2.0230    -1.2270    -0.6750 h1         1 6ZG       0.054200
     40 H18          4.4590     0.0760     0.6330 hc         1 6ZG       0.044700
     41 H19          4.2410    -0.1960    -1.0890 hc         1 6ZG       0.044700
     42 H20          6.3220    -3.9270    -0.7290 hn         1 6ZG       0.392500
     43 H21          7.6650    -3.3010    -0.0950 hn         1 6ZG       0.392500
     44 C01         -5.0200    -4.2900    -0.0290 c3         1 6ZG      -0.048800
@<TRIPOS>BOND
     1     1     3 ar  
     2     1    13 ar  
     3     1    14 ar  
     4     2    15 ar  
     5     2    16 ar  
     6     2    23 1   
     7     3    16 ar  
     8     3    17 ar  
     9     4     5 1   
    10     4    20 1   
    11     4    24 1   
    12     4    25 1   
    13     5    21 1   
    14     5    26 1   
    15     5    27 1   
    16     6     7 ar  
    17     6    11 ar  
    18     6    44 1   
    19     7     8 ar  
    20     7    31 1   
    21     8     9 ar  
    22     8    32 1   
    23     9    10 ar  
    24     9    12 1   
    25    10    11 ar  
    26    10    33 1   
    27    11    34 1   
    28    12    13 ar  
    29    12    22 ar  
    30    13    35 1   
    31    14    15 ar  
    32    15    36 1   
    33    17    18 1   
    34    17    22 ar  
    35    18    19 1   
    36    18    37 1   
    37    19    20 1   
    38    19    38 1   
    39    19    39 1   
    40    20    40 1   
    41    20    41 1   
    42    21    42 1   
    43    21    43 1   
    44    28    44 1   
    45    29    44 1   
    46    30    44 1   
@<TRIPOS>SUBSTRUCTURE
     1 6ZG         1 TEMP              0 ****  ****    0 ROOT
