@<TRIPOS>MOLECULE
6ZG
   44    46     1     0     0
SMALL
No Charge or Current Charge


@<TRIPOS>ATOM
      1 C10         -1.1060     2.7500     0.0740 ca         1 6ZG       0.299000
      2 C13          0.7250     4.7590     0.0810 ca         1 6ZG       0.266900
      3 C15          0.2930     2.4770     0.0430 ca         1 6ZG       0.113000
      4 C20          4.6970    -2.0400    -0.0610 c3         1 6ZG      -0.076400
      5 C21          6.2390    -2.0040    -0.0850 c3         1 6ZG       0.149800
      6 C02         -4.2150    -3.0980     0.0060 ca         1 6ZG      -0.060300
      7 C03         -2.8920    -3.2300     0.4610 ca         1 6ZG      -0.123500
      8 C04         -2.0280    -2.1220     0.4660 ca         1 6ZG      -0.074000
      9 C05         -2.4600    -0.8420     0.0200 cp         1 6ZG      -0.156500
     10 C06         -3.8020    -0.7350    -0.4390 ca         1 6ZG      -0.074000
     11 C07         -4.6640    -1.8450    -0.4430 ca         1 6ZG      -0.123500
     12 C08         -1.5310     0.3450     0.0290 cp         1 6ZG       0.483500
     13 C09         -2.0010     1.6740     0.0680 ca         1 6ZG      -0.203000
     14 N11         -1.5900     4.0190     0.1110 nb         1 6ZG      -0.637000
     15 C12         -0.6670     5.0190     0.1140 ca         1 6ZG       0.322900
     16 N14          1.2220     3.4940     0.0460 nb         1 6ZG      -0.621000
     17 C16          0.6530     1.1000     0.0140 ca         1 6ZG       0.676900
     18 N17          1.9800     0.7010    -0.0110 nu         1 6ZG      -0.918100
     19 C18          2.5230    -0.6650    -0.0220 c3         1 6ZG       0.231800
     20 C19          4.0640    -0.6300    -0.0480 c3         1 6ZG      -0.096400
     21 N22          6.8120    -3.3620    -0.0930 n8         1 6ZG      -0.995200
     22 N23         -0.2130     0.0780     0.0110 nb         1 6ZG      -0.788000
     23 H1           1.4470     5.5750     0.0850 h4         1 6ZG       0.030100
     24 H2           4.3330    -2.5890    -0.9390 hc         1 6ZG       0.050200
     25 H3           4.3630    -2.5930     0.8260 hc         1 6ZG       0.050200
     26 H4           6.5840    -1.4700    -0.9810 h1         1 6ZG       0.026700
     27 H5           6.6100    -1.4720     0.8020 h1         1 6ZG       0.026700
     28 H6          -5.6990    -4.3670     0.9500 hc         1 6ZG       0.043033
     29 H7          -5.8880    -4.2280    -0.8060 hc         1 6ZG       0.043033
     30 H8          -4.6000    -5.2350    -0.1350 hc         1 6ZG       0.043033
     31 H9          -2.5300    -4.1930     0.8140 ha         1 6ZG       0.111500
     32 H10         -1.0110    -2.2590     0.8290 ha         1 6ZG       0.123500
     33 H11         -4.1840     0.2120    -0.8130 ha         1 6ZG       0.123500
     34 H12         -5.6840    -1.7290    -0.8010 ha         1 6ZG       0.111500
     35 H13         -3.0640     1.8770     0.1100 ha         1 6ZG       0.142000
     36 H14         -1.0450     6.0390     0.1430 h4         1 6ZG       0.029100
     37 H15          2.6290     1.4870    -0.0040 hn         1 6ZG       0.515000
     38 H16          2.1880    -1.2110     0.8710 h1         1 6ZG       0.054200
     39 H17          2.1580    -1.2080    -0.9060 h1         1 6ZG       0.054200
     40 H18          4.4270    -0.0830     0.8310 hc         1 6ZG       0.044700
     41 H19          4.3980    -0.0790    -0.9360 hc         1 6ZG       0.044700
     42 H20          6.5400    -3.8340    -0.9650 hn         1 6ZG       0.392500
     43 H21          7.8340    -3.2930    -0.1680 hn         1 6ZG       0.392500
     44 C01         -5.1510    -4.2970     0.0030 c3         1 6ZG      -0.048800
@<TRIPOS>BOND
     1     1     3 ar  
     2     1    13 ar  
     3     1    14 ar  
     4     2    15 ar  
     5     2    16 ar  
     6     2    23 1   
     7     3    16 ar  
     8     3    17 ar  
     9     4     5 1   
    10     4    20 1   
    11     4    24 1   
    12     4    25 1   
    13     5    21 1   
    14     5    26 1   
    15     5    27 1   
    16     6     7 ar  
    17     6    11 ar  
    18     6    44 1   
    19     7     8 ar  
    20     7    31 1   
    21     8     9 ar  
    22     8    32 1   
    23     9    10 ar  
    24     9    12 1   
    25    10    11 ar  
    26    10    33 1   
    27    11    34 1   
    28    12    13 ar  
    29    12    22 ar  
    30    13    35 1   
    31    14    15 ar  
    32    15    36 1   
    33    17    18 1   
    34    17    22 ar  
    35    18    19 1   
    36    18    37 1   
    37    19    20 1   
    38    19    38 1   
    39    19    39 1   
    40    20    40 1   
    41    20    41 1   
    42    21    42 1   
    43    21    43 1   
    44    28    44 1   
    45    29    44 1   
    46    30    44 1   
@<TRIPOS>SUBSTRUCTURE
     1 6ZG         1 TEMP              0 ****  ****    0 ROOT
