@<TRIPOS>MOLECULE
6ZH
   43    45     1     0     0
SMALL
No Charge or Current Charge


@<TRIPOS>ATOM
      1 C6          -1.9410     0.1840     0.6710 c2         1 6ZH      -0.274200
      2 C5          -2.1410     1.5130     0.5750 c2         1 6ZH      -0.152200
      3 C4          -1.0210     2.4540     0.1280 c5         1 6ZH       0.158500
      4 O4           0.2130     2.0440     0.7650 os         1 6ZH      -0.448000
      5 C3          -0.7810     2.3260    -1.4110 c5         1 6ZH       0.102300
      6 O3          -1.5960     3.2140    -2.1970 oh         1 6ZH      -0.697000
      7 C2           0.7180     2.7290    -1.4920 c5         1 6ZH       0.140300
      8 O2           0.8340     4.1600    -1.4220 oh         1 6ZH      -0.697000
      9 C1           1.2740     1.9850    -0.2240 c5         1 6ZH       0.309300
     10 N9           1.6740     0.5790    -0.3740 na         1 6ZH      -0.303300
     11 C8           1.4530    -0.2440    -1.4870 cc         1 6ZH       0.383700
     12 N7           1.9450    -1.4800    -1.2940 nd         1 6ZH      -0.548100
     13 C11          2.4960    -1.4090    -0.0120 ca         1 6ZH      -0.110600
     14 C10          3.1590    -2.4030     0.7360 ca         1 6ZH       0.455900
     15 N6           3.3600    -3.6620     0.2630 nv         1 6ZH      -1.058900
     16 N1           3.6220    -2.1510     1.9700 nb         1 6ZH      -0.290000
     17 C13          3.4190    -0.8950     2.4370 ca         1 6ZH       0.198900
     18 N3           2.7990     0.1200     1.7880 nb         1 6ZH      -0.221000
     19 C12          2.3400    -0.1700     0.5550 ca         1 6ZH       0.148500
     20 C7          -2.9720    -0.8170     1.1150 c3         1 6ZH       0.103800
     21 N8          -3.9240    -0.9800     0.0140 nu         1 6ZH      -0.888000
     22 C9          -4.9950    -1.7420    -0.0490 cz         1 6ZH       0.932600
     23 N10         -5.3410    -2.4870     0.9600 nv         1 6ZH      -0.607300
     24 N11         -5.7070    -1.7410    -1.1350 nv         1 6ZH      -0.607300
     25 H1          -0.9700    -0.2580     0.4400 ha         1 6ZH       0.217000
     26 H2          -3.1190     1.9300     0.8240 ha         1 6ZH       0.181000
     27 H3          -1.2280     3.4970     0.4110 h1         1 6ZH       0.103700
     28 H4          -0.9190     1.2880    -1.7430 h1         1 6ZH       0.038700
     29 H5          -2.5050     2.8280    -2.2300 ho         1 6ZH       0.520000
     30 H6           1.1860     2.3590    -2.4140 h1         1 6ZH       0.080700
     31 H7          -0.0200     4.4720    -1.8150 ho         1 6ZH       0.537000
     32 H8           2.1680     2.5050     0.1470 h2         1 6ZH       0.146700
     33 H9           0.9430     0.0980    -2.3800 h5         1 6ZH       0.045800
     34 H11          2.8300    -3.9250    -0.5640 hn         1 6ZH       0.509500
     35 H10          3.5600    -4.4020     0.9300 hn         1 6ZH       0.509500
     36 H12          3.7930    -0.6780     3.4360 h5         1 6ZH       0.058100
     37 H13         -2.4850    -1.7740     1.3540 h1         1 6ZH       0.069200
     38 H14         -3.4790    -0.4530     2.0210 h1         1 6ZH       0.069200
     39 H15         -3.7250    -0.4290    -0.8120 hn         1 6ZH       0.372000
     40 H16         -4.7970    -2.4930     1.8050 hn         1 6ZH       0.378000
     41 H18         -5.4560    -1.1770    -1.9290 hn         1 6ZH       0.378000
     42 H17         -6.5340    -2.3080    -1.2310 hn         1 6ZH       0.378000
     43 H19         -6.1560    -3.0770     0.9380 hn         1 6ZH       0.378000
@<TRIPOS>BOND
     1     1     2 2   
     2     1    20 1   
     3     1    25 1   
     4     2     3 1   
     5     2    26 1   
     6     3     4 1   
     7     3     5 1   
     8     3    27 1   
     9     4     9 1   
    10     5     6 1   
    11     5     7 1   
    12     5    28 1   
    13     6    29 1   
    14     7     8 1   
    15     7     9 1   
    16     7    30 1   
    17     8    31 1   
    18     9    10 1   
    19     9    32 1   
    20    10    11 1   
    21    10    19 1   
    22    11    12 2   
    23    11    33 1   
    24    12    13 1   
    25    13    14 ar  
    26    13    19 ar  
    27    14    15 1   
    28    14    16 ar  
    29    15    34 1   
    30    15    35 1   
    31    16    17 ar  
    32    17    18 ar  
    33    17    36 1   
    34    18    19 ar  
    35    20    21 1   
    36    20    37 1   
    37    20    38 1   
    38    21    22 2   
    39    21    39 1   
    40    22    23 1   
    41    22    24 1   
    42    23    40 1   
    43    23    43 1   
    44    24    41 1   
    45    24    42 1   
@<TRIPOS>SUBSTRUCTURE
     1 6ZH         1 TEMP              0 ****  ****    0 ROOT
