@<TRIPOS>MOLECULE
6ZH
   43    45     1     0     0
SMALL
abcg2


@<TRIPOS>ATOM
      1 C6          -2.7840     0.5920     0.7210 c2         1 6ZH      -0.274200
      2 C5          -2.4780     1.8110     0.2940 c2         1 6ZH      -0.152200
      3 C4          -1.1210     2.4220     0.2940 c5         1 6ZH       0.158500
      4 O4          -0.1760     1.5830     0.9280 os         1 6ZH      -0.448000
      5 C3          -0.5560     2.6510    -1.1190 c5         1 6ZH       0.102300
      6 O3          -0.9790     3.8410    -1.7120 oh         1 6ZH      -0.697000
      7 C2           0.9490     2.6710    -0.8460 c5         1 6ZH       0.140300
      8 O2           1.3640     3.9180    -0.3570 oh         1 6ZH      -0.697000
      9 C1           1.0830     1.6720     0.3090 c5         1 6ZH       0.309300
     10 N9           1.5040     0.3530    -0.1020 na         1 6ZH      -0.303300
     11 C8           0.8780    -0.5050    -0.9680 cc         1 6ZH       0.383700
     12 N7           1.4840    -1.6460    -1.0940 nd         1 6ZH      -0.548100
     13 C11          2.5710    -1.5500    -0.2640 ca         1 6ZH      -0.110600
     14 C10          3.6100    -2.4410     0.0630 ca         1 6ZH       0.455900
     15 N6           3.7130    -3.6570    -0.4740 nv         1 6ZH      -1.058900
     16 N1           4.5290    -2.0340     0.9460 nb         1 6ZH      -0.290000
     17 C13          4.4280    -0.8170     1.4740 ca         1 6ZH       0.198900
     18 N3           3.5060     0.1030     1.2450 nb         1 6ZH      -0.221000
     19 C12          2.5990    -0.3170     0.3680 ca         1 6ZH       0.148500
     20 C7          -4.1790     0.0560     0.7030 c3         1 6ZH       0.103800
     21 N8          -4.2350    -1.1510    -0.1080 nu         1 6ZH      -0.888000
     22 C9          -5.0930    -2.1510     0.0580 cz         1 6ZH       0.932600
     23 N10         -6.0300    -2.0990     0.9930 nv         1 6ZH      -0.607300
     24 N11         -5.0080    -3.2170    -0.7300 nv         1 6ZH      -0.607300
     25 H1          -2.0250    -0.0650     1.1320 ha         1 6ZH       0.217000
     26 H2          -3.2600     2.4540    -0.1020 ha         1 6ZH       0.181000
     27 H3          -1.1720     3.3940     0.8060 h1         1 6ZH       0.103700
     28 H4          -0.7970     1.7850    -1.7480 h1         1 6ZH       0.038700
     29 H5          -1.7410     3.6660    -2.2720 ho         1 6ZH       0.520000
     30 H6           1.5350     2.3610    -1.7190 h1         1 6ZH       0.080700
     31 H7           1.1040     4.5960    -0.9900 ho         1 6ZH       0.537000
     32 H8           1.8390     2.0170     1.0200 h2         1 6ZH       0.146700
     33 H9          -0.0330    -0.2360    -1.4810 h5         1 6ZH       0.045800
     34 H11          3.0130    -4.0080    -1.1030 hn         1 6ZH       0.509500
     35 H10          4.4330    -4.2870    -0.1640 hn         1 6ZH       0.509500
     36 H12          5.2040    -0.5510     2.1830 h5         1 6ZH       0.058100
     37 H13         -4.4700    -0.1970     1.7260 h1         1 6ZH       0.069200
     38 H14         -4.8820     0.8060     0.3340 h1         1 6ZH       0.069200
     39 H15         -3.6500    -1.1770    -0.9290 hn         1 6ZH       0.372000
     40 H16         -6.2490    -1.2510     1.4850 hn         1 6ZH       0.378000
     41 H18         -4.1890    -3.3750    -1.2920 hn         1 6ZH       0.378000
     42 H17         -5.6250    -4.0020    -0.5970 hn         1 6ZH       0.378000
     43 H19         -6.6380    -2.8850     1.1550 hn         1 6ZH       0.378000
@<TRIPOS>BOND
     1     1     2 2   
     2     1    20 1   
     3     1    25 1   
     4     2     3 1   
     5     2    26 1   
     6     3     4 1   
     7     3     5 1   
     8     3    27 1   
     9     4     9 1   
    10     5     6 1   
    11     5     7 1   
    12     5    28 1   
    13     6    29 1   
    14     7     8 1   
    15     7     9 1   
    16     7    30 1   
    17     8    31 1   
    18     9    10 1   
    19     9    32 1   
    20    10    11 1   
    21    10    19 1   
    22    11    12 2   
    23    11    33 1   
    24    12    13 1   
    25    13    14 ar  
    26    13    19 ar  
    27    14    15 1   
    28    14    16 ar  
    29    15    34 1   
    30    15    35 1   
    31    16    17 ar  
    32    17    18 ar  
    33    17    36 1   
    34    18    19 ar  
    35    20    21 1   
    36    20    37 1   
    37    20    38 1   
    38    21    22 2   
    39    21    39 1   
    40    22    23 1   
    41    22    24 1   
    42    23    40 1   
    43    23    43 1   
    44    24    41 1   
    45    24    42 1   
@<TRIPOS>SUBSTRUCTURE
     1 6ZH         1 TEMP              0 ****  ****    0 ROOT
