@<TRIPOS>MOLECULE
6ZI
   50    54     1     0     0
SMALL
No Charge or Current Charge


@<TRIPOS>ATOM
      1 C2          61.0500    54.1730    17.9450 c          1 6ZI       0.629100
      2 C4          59.8120    51.9210    17.6870 ca         1 6ZI      -0.038000
      3 C5          60.0630    50.5970    17.2750 ca         1 6ZI      -0.121000
      4 C6          59.0800    49.6010    17.4210 ca         1 6ZI      -0.125000
      5 C7          57.8350    49.9270    17.9760 ca         1 6ZI       0.147000
      6 C11         62.4200    54.6960    17.3190 cy         1 6ZI      -0.163700
      7 C12         61.9000    56.1090    16.8840 cy         1 6ZI       0.158100
      8 C15         63.2750    53.7760    16.4390 ca         1 6ZI      -0.074300
      9 C16         64.2520    52.9460    17.0170 ca         1 6ZI      -0.094500
     10 C17         65.0170    52.0840    16.2140 ca         1 6ZI      -0.097500
     11 C18         64.8230    52.0210    14.8120 cp         1 6ZI      -0.017000
     12 C19         63.8290    52.8590    14.2480 ca         1 6ZI      -0.097500
     13 C21         65.6370    51.1000    13.9570 cp         1 6ZI      -0.099000
     14 C23         65.9140    49.6460    12.0270 ca         1 6ZI      -0.159000
     15 C24         67.2370    49.4060    12.4350 ca         1 6ZI       0.395300
     16 C27         68.1360    48.4930    11.6530 cx         1 6ZI      -0.205000
     17 O1          60.2250    54.6900    18.6950 o          1 6ZI      -0.572100
     18 N3          60.8560    52.8700    17.4980 ns         1 6ZI      -0.138000
     19 F8          56.8890    48.9730    18.1160 f          1 6ZI      -0.178000
     20 C9          57.5660    51.2420    18.3820 ca         1 6ZI      -0.125000
     21 C10         58.5480    52.2400    18.2370 ca         1 6ZI      -0.121000
     22 O13         62.9580    56.6680    17.7550 oq         1 6ZI      -0.440000
     23 C14         62.9490    55.4460    18.5900 cy         1 6ZI       0.158100
     24 C20         63.0640    53.7240    15.0490 ca         1 6ZI      -0.094500
     25 C22         65.1030    50.5010    12.7900 ca         1 6ZI      -0.060000
     26 N25         67.7690    49.9590    13.5460 nb         1 6ZI      -0.680000
     27 C26         66.9840    50.7830    14.2800 ca         1 6ZI       0.358900
     28 C28         68.3140    48.6340    10.1550 cx         1 6ZI      -0.105900
     29 C29         69.4590    48.9590    11.0830 cx         1 6ZI      -0.105900
     30 H1          61.0270    50.3340    16.8410 ha         1 6ZI       0.131500
     31 H2          59.2820    48.5810    17.1040 ha         1 6ZI       0.134000
     32 H3          60.9070    56.4420    17.2100 h1         1 6ZI       0.063200
     33 H4          62.0660    56.3680    15.8320 h1         1 6ZI       0.063200
     34 H5          64.4180    52.9590    18.0920 ha         1 6ZI       0.116500
     35 H6          65.7560    51.4450    16.6910 ha         1 6ZI       0.119000
     36 H7          63.6550    52.8510    13.1750 ha         1 6ZI       0.119000
     37 H8          65.5240    49.1700    11.1320 ha         1 6ZI       0.125000
     38 H9          68.1060    47.4780    12.0410 hc         1 6ZI       0.081700
     39 H10         61.6090    52.5280    16.9140 hn         1 6ZI       0.151000
     40 H11         56.5950    51.4890    18.8050 ha         1 6ZI       0.134000
     41 H12         58.3010    53.2500    18.5470 ha         1 6ZI       0.131500
     42 H13         63.9610    55.1720    18.9110 h1         1 6ZI       0.063200
     43 H14         62.2920    55.5700    19.4590 h1         1 6ZI       0.063200
     44 H15         62.3060    54.3490    14.5840 ha         1 6ZI       0.116500
     45 H16         64.0740    50.6820    12.4870 ha         1 6ZI       0.120000
     46 H17         67.4570    51.2180    15.1590 h4         1 6ZI       0.020100
     47 H18         68.3820    47.7240     9.5630 hc         1 6ZI       0.078200
     48 H19         67.8220    49.4660     9.6550 hc         1 6ZI       0.078200
     49 H20         69.7290    50.0060    11.2060 hc         1 6ZI       0.078200
     50 H21         70.2980    48.2670    11.1170 hc         1 6ZI       0.078200
@<TRIPOS>BOND
     1     1     6 1   
     2     1    17 2   
     3     1    18 1   
     4     2     3 ar  
     5     2    18 1   
     6     2    21 ar  
     7     3     4 ar  
     8     3    30 1   
     9     4     5 ar  
    10     4    31 1   
    11     5    19 1   
    12     5    20 ar  
    13     6     7 1   
    14     6     8 1   
    15     6    23 1   
    16     7    22 1   
    17     7    32 1   
    18     7    33 1   
    19     8     9 ar  
    20     8    24 ar  
    21     9    10 ar  
    22     9    34 1   
    23    10    11 ar  
    24    10    35 1   
    25    11    12 ar  
    26    11    13 1   
    27    12    24 ar  
    28    12    36 1   
    29    13    25 ar  
    30    13    27 ar  
    31    14    15 ar  
    32    14    25 ar  
    33    14    37 1   
    34    15    16 1   
    35    15    26 ar  
    36    16    28 1   
    37    16    29 1   
    38    16    38 1   
    39    18    39 1   
    40    20    21 ar  
    41    20    40 1   
    42    21    41 1   
    43    22    23 1   
    44    23    42 1   
    45    23    43 1   
    46    24    44 1   
    47    25    45 1   
    48    26    27 ar  
    49    27    46 1   
    50    28    29 1   
    51    28    47 1   
    52    28    48 1   
    53    29    49 1   
    54    29    50 1   
@<TRIPOS>SUBSTRUCTURE
     1 6ZI         1 TEMP              0 ****  ****    0 ROOT
