@<TRIPOS>MOLECULE
6ZI
   50    54     1     0     0
SMALL
bcc


@<TRIPOS>ATOM
      1 C2          61.4430    53.3490    17.8680 c          1 6ZI       0.696100
      2 C4          59.2620    52.1600    17.8840 ca         1 6ZI       0.054600
      3 C5          58.0210    52.1710    17.2440 ca         1 6ZI      -0.139000
      4 C6          56.9560    51.4360    17.7350 ca         1 6ZI      -0.143000
      5 C7          57.1390    50.6860    18.8810 ca         1 6ZI       0.111900
      6 C11         62.2820    54.2710    16.9910 cy         1 6ZI      -0.163700
      7 C12         61.5660    55.4420    16.2790 cy         1 6ZI       0.134900
      8 C15         63.1810    53.4080    16.1400 ca         1 6ZI      -0.074300
      9 C16         64.3970    52.9490    16.6380 ca         1 6ZI      -0.112500
     10 C17         65.2290    52.1590    15.8630 ca         1 6ZI      -0.115500
     11 C18         64.8710    51.7980    14.5630 cp         1 6ZI      -0.017000
     12 C19         63.6390    52.2360    14.0790 ca         1 6ZI      -0.115500
     13 C21         65.7750    50.9980    13.7200 cp         1 6ZI      -0.164300
     14 C23         66.2050    49.3260    12.0490 ca         1 6ZI      -0.242300
     15 C24         67.5690    49.5900    12.1690 ca         1 6ZI       0.460600
     16 C27         68.5540    48.8530    11.3500 cx         1 6ZI      -0.205000
     17 O1          61.8480    52.9930    18.9580 o          1 6ZI      -0.572100
     18 N3          60.2740    52.9470    17.3160 ns         1 6ZI      -0.464100
     19 F8          56.1050    49.9850    19.3750 f          1 6ZI      -0.142900
     20 C9          58.3560    50.6460    19.5270 ca         1 6ZI      -0.143000
     21 C10         59.4240    51.3800    19.0290 ca         1 6ZI      -0.139000
     22 O13         62.2560    56.4040    17.0680 oq         1 6ZI      -0.393600
     23 C14         62.9700    55.3970    17.7840 cy         1 6ZI       0.134900
     24 C20         62.8060    53.0240    14.8570 ca         1 6ZI      -0.112500
     25 C22         65.3080    50.0330    12.8280 ca         1 6ZI      -0.078000
     26 N25         68.0210    50.5120    13.0170 nb         1 6ZI      -0.680000
     27 C26         67.1560    51.1860    13.7580 ca         1 6ZI       0.424200
     28 C28         69.7900    49.5530    10.8470 cx         1 6ZI      -0.105900
     29 C29         69.9110    48.5240    11.9140 cx         1 6ZI      -0.105900
     30 H1          57.8780    52.7690    16.3520 ha         1 6ZI       0.149500
     31 H2          55.9980    51.4550    17.2330 ha         1 6ZI       0.152000
     32 H3          60.4810    55.4970    16.4150 h1         1 6ZI       0.063200
     33 H4          61.7880    55.5360    15.2130 h1         1 6ZI       0.063200
     34 H5          64.7100    53.2100    17.6420 ha         1 6ZI       0.134500
     35 H6          66.1640    51.8120    16.2850 ha         1 6ZI       0.137000
     36 H7          63.3320    51.9860    13.0710 ha         1 6ZI       0.137000
     37 H8          65.8560    48.5710    11.3580 ha         1 6ZI       0.143000
     38 H9          68.1180    48.1140    10.6870 hc         1 6ZI       0.081700
     39 H10         60.0430    53.3330    16.4120 hn         1 6ZI       0.317500
     40 H11         58.4840    50.0450    20.4190 ha         1 6ZI       0.152000
     41 H12         60.3700    51.3350    19.5430 ha         1 6ZI       0.149500
     42 H13         64.0500    55.4690    17.6390 h1         1 6ZI       0.063200
     43 H14         62.7570    55.4100    18.8550 h1         1 6ZI       0.063200
     44 H15         61.8620    53.3530    14.4390 ha         1 6ZI       0.134500
     45 H16         64.2490    49.8220    12.7520 ha         1 6ZI       0.138000
     46 H17         67.5820    51.9400    14.4120 h4         1 6ZI       0.020100
     47 H18         70.1250    49.3090     9.8480 hc         1 6ZI       0.078200
     48 H19         69.9150    50.5910    11.1270 hc         1 6ZI       0.078200
     49 H20         70.1190    48.8600    12.9210 hc         1 6ZI       0.078200
     50 H21         70.3330    47.5600    11.6600 hc         1 6ZI       0.078200
@<TRIPOS>BOND
     1     1     6 1   
     2     1    17 2   
     3     1    18 1   
     4     2     3 ar  
     5     2    18 1   
     6     2    21 ar  
     7     3     4 ar  
     8     3    30 1   
     9     4     5 ar  
    10     4    31 1   
    11     5    19 1   
    12     5    20 ar  
    13     6     7 1   
    14     6     8 1   
    15     6    23 1   
    16     7    22 1   
    17     7    32 1   
    18     7    33 1   
    19     8     9 ar  
    20     8    24 ar  
    21     9    10 ar  
    22     9    34 1   
    23    10    11 ar  
    24    10    35 1   
    25    11    12 ar  
    26    11    13 1   
    27    12    24 ar  
    28    12    36 1   
    29    13    25 ar  
    30    13    27 ar  
    31    14    15 ar  
    32    14    25 ar  
    33    14    37 1   
    34    15    16 1   
    35    15    26 ar  
    36    16    28 1   
    37    16    29 1   
    38    16    38 1   
    39    18    39 1   
    40    20    21 ar  
    41    20    40 1   
    42    21    41 1   
    43    22    23 1   
    44    23    42 1   
    45    23    43 1   
    46    24    44 1   
    47    25    45 1   
    48    26    27 ar  
    49    27    46 1   
    50    28    29 1   
    51    28    47 1   
    52    28    48 1   
    53    29    49 1   
    54    29    50 1   
@<TRIPOS>SUBSTRUCTURE
     1 6ZI         1 TEMP              0 ****  ****    0 ROOT
