@<TRIPOS>MOLECULE
6ZK
   52    56     1     0     0
SMALL
bcc


@<TRIPOS>ATOM
      1 O32          9.8730     1.8010     0.7230 o          1 6ZK      -0.604100
      2 C31          9.3760     0.8920     0.0720 c          1 6ZK       0.683700
      3 N33         10.1090     0.0380    -0.6580 nt         1 6ZK      -0.670000
      4 C28          7.8950     0.6780     0.0580 ca         1 6ZK      -0.149600
      5 C29          7.3060    -0.5410    -0.2700 ca         1 6ZK      -0.090500
      6 C30          5.9290    -0.6860    -0.2500 ca         1 6ZK      -0.127500
      7 C27          7.0720     1.7410     0.4210 ca         1 6ZK      -0.090500
      8 C26          5.6960     1.5990     0.4280 ca         1 6ZK      -0.127500
      9 C25          5.0990     0.3820     0.0920 cp         1 6ZK      -0.015000
     10 C22          3.6340     0.2260     0.1020 cp         1 6ZK      -0.022000
     11 C21          2.7980     1.2710    -0.2950 ca         1 6ZK      -0.127000
     12 C20          1.4210     1.1220    -0.2930 ca         1 6ZK      -0.091500
     13 C23          3.0410    -0.9740     0.5000 ca         1 6ZK      -0.127000
     14 C24          1.6670    -1.1240     0.4990 ca         1 6ZK      -0.091500
     15 C19          0.8320    -0.0770     0.1050 ca         1 6ZK      -0.155500
     16 C3          -0.6330    -0.2670     0.0990 cc         1 6ZK       0.566800
     17 N4          -1.0590    -1.5170     0.0530 nd         1 6ZK      -0.691000
     18 C5          -2.3770    -1.6970     0.0400 cd         1 6ZK       0.460500
     19 C9          -3.1790    -2.8320    -0.0020 cc         1 6ZK      -0.292900
     20 BR1         -2.5730    -4.5830    -0.0420 br         1 6ZK      -0.020700
     21 C2          -1.4970     0.8430     0.1460 cc         1 6ZK      -0.419300
     22 C1          -2.8680     0.6440     0.1140 cd         1 6ZK       0.321300
     23 N6          -3.2750    -0.6560     0.0570 na         1 6ZK       0.018200
     24 N7          -4.5550    -1.0460     0.0280 nd         1 6ZK      -0.616100
     25 C8          -4.4950    -2.3660    -0.0070 cc         1 6ZK       0.442500
     26 N11         -3.8120     1.5780     0.1330 nu         1 6ZK      -0.765600
     27 C12         -3.5160     2.9970     0.2060 c3         1 6ZK       0.289100
     28 C13         -4.7810     3.7870     0.0510 ca         1 6ZK      -0.246600
     29 C18         -5.6250     4.0200     1.1300 ca         1 6ZK      -0.072000
     30 C17         -6.7950     4.7330     0.9260 ca         1 6ZK      -0.248300
     31 C16         -7.0770     5.1870    -0.3540 ca         1 6ZK       0.417200
     32 N15         -6.2800     4.9730    -1.3940 nb         1 6ZK      -0.661000
     33 C14         -5.1640     4.2880    -1.1880 ca         1 6ZK       0.427200
     34 H1          11.1080     0.1560    -0.7040 hn         1 6ZK       0.314000
     35 H2           9.7010    -0.6150    -1.3040 hn         1 6ZK       0.314000
     36 H3           7.9070    -1.4020    -0.5320 ha         1 6ZK       0.142500
     37 H4           5.5000    -1.6420    -0.5240 ha         1 6ZK       0.137500
     38 H5           7.5090     2.6900     0.7020 ha         1 6ZK       0.142500
     39 H6           5.0810     2.4410     0.7210 ha         1 6ZK       0.137500
     40 H7           3.2220     2.2050    -0.6390 ha         1 6ZK       0.136500
     41 H8           0.8150     1.9480    -0.6400 ha         1 6ZK       0.145500
     42 H9           3.6580    -1.7970     0.8370 ha         1 6ZK       0.136500
     43 H10          1.2340    -2.0620     0.8190 ha         1 6ZK       0.145500
     44 H11         -1.1110     1.8470     0.2300 ha         1 6ZK       0.156000
     45 H12         -5.4020    -2.9510    -0.0350 h4         1 6ZK       0.055800
     46 H13         -4.7740     1.2740     0.1340 hn         1 6ZK       0.478800
     47 H14         -3.0430     3.2340     1.1630 h1         1 6ZK       0.057200
     48 H15         -2.8080     3.2630    -0.5820 h1         1 6ZK       0.057200
     49 H16         -5.3680     3.6550     2.1170 ha         1 6ZK       0.143000
     50 H17         -7.4760     4.9380     1.7410 ha         1 6ZK       0.149000
     51 H18         -7.9840     5.7500    -0.5450 h4         1 6ZK       0.025100
     52 H19         -4.5270     4.1280    -2.0530 h4         1 6ZK       0.024100
@<TRIPOS>BOND
     1     1     2 2   
     2     2     3 1   
     3     2     4 1   
     4     3    34 1   
     5     3    35 1   
     6     4     5 ar  
     7     4     7 ar  
     8     5     6 ar  
     9     5    36 1   
    10     6     9 ar  
    11     6    37 1   
    12     7     8 ar  
    13     7    38 1   
    14     8     9 ar  
    15     8    39 1   
    16     9    10 1   
    17    10    11 ar  
    18    10    13 ar  
    19    11    12 ar  
    20    11    40 1   
    21    12    15 ar  
    22    12    41 1   
    23    13    14 ar  
    24    13    42 1   
    25    14    15 ar  
    26    14    43 1   
    27    15    16 1   
    28    16    17 2   
    29    16    21 1   
    30    17    18 1   
    31    18    19 2   
    32    18    23 1   
    33    19    20 1   
    34    19    25 1   
    35    21    22 2   
    36    21    44 1   
    37    22    23 1   
    38    22    26 1   
    39    23    24 1   
    40    24    25 2   
    41    25    45 1   
    42    26    27 1   
    43    26    46 1   
    44    27    28 1   
    45    27    47 1   
    46    27    48 1   
    47    28    29 ar  
    48    28    33 ar  
    49    29    30 ar  
    50    29    49 1   
    51    30    31 ar  
    52    30    50 1   
    53    31    32 ar  
    54    31    51 1   
    55    32    33 ar  
    56    33    52 1   
@<TRIPOS>SUBSTRUCTURE
     1 6ZK         1 TEMP              0 ****  ****    0 ROOT
