@<TRIPOS>MOLECULE
6ZK
   52    56     1     0     0
SMALL
No Charge or Current Charge


@<TRIPOS>ATOM
      1 O32         10.0340     1.9320     0.4820 o          1 6ZK      -0.604100
      2 C31          9.5090     0.9240     0.0370 c          1 6ZK       0.616700
      3 N33         10.2950    -0.0470    -0.4770 nt         1 6ZK      -0.603000
      4 C28          8.0090     0.7130     0.0360 ca         1 6ZK      -0.149600
      5 C29          7.4150    -0.4610    -0.4850 ca         1 6ZK      -0.072500
      6 C30          6.0190    -0.6240    -0.4700 ca         1 6ZK      -0.109500
      7 C27          7.1640     1.7110     0.5690 ca         1 6ZK      -0.072500
      8 C26          5.7690     1.5430     0.5800 ca         1 6ZK      -0.109500
      9 C25          5.1650     0.3720     0.0620 cp         1 6ZK      -0.015000
     10 C22          3.6770     0.1940     0.0760 cp         1 6ZK      -0.022000
     11 C21          2.8040     1.2890    -0.1060 ca         1 6ZK      -0.109000
     12 C20          1.4070     1.1290    -0.0950 ca         1 6ZK      -0.073500
     13 C23          3.0900    -1.0750     0.2680 ca         1 6ZK      -0.109000
     14 C24          1.6950    -1.2430     0.2810 ca         1 6ZK      -0.073500
     15 C19          0.8110    -0.1440     0.1070 ca         1 6ZK      -0.155500
     16 C3          -0.6680    -0.3530     0.1190 cc         1 6ZK       0.501500
     17 N4          -1.0770    -1.6240     0.2080 nd         1 6ZK      -0.691000
     18 C5          -2.4500    -1.6780     0.1930 cd         1 6ZK       0.460500
     19 C9          -3.1550    -2.8340     0.2730 cc         1 6ZK      -0.292900
     20 Br1         -2.4970    -4.5990     0.4170 br         1 6ZK      -0.020700
     21 C2          -1.5850     0.7750     0.0230 cc         1 6ZK      -0.336000
     22 C1          -2.9570     0.6300     0.0160 cd         1 6ZK       0.409000
     23 N6          -3.3890    -0.6880     0.1040 na         1 6ZK       0.068900
     24 N7          -4.7180    -1.1060     0.1230 nd         1 6ZK      -0.616100
     25 C8          -4.5170    -2.4210     0.2250 cc         1 6ZK       0.442500
     26 N11         -3.8570     1.6630    -0.0680 nu         1 6ZK      -0.959200
     27 C12         -3.5740     3.0990    -0.0690 c3         1 6ZK       0.289100
     28 C13         -4.8800     3.8660    -0.0890 ca         1 6ZK      -0.181300
     29 C18         -5.6830     3.9590     1.0630 ca         1 6ZK      -0.054000
     30 C17         -6.8790     4.6900     0.9800 ca         1 6ZK      -0.165000
     31 C16         -7.2270     5.3000    -0.2370 ca         1 6ZK       0.351900
     32 N15         -6.4580     5.2170    -1.3470 nb         1 6ZK      -0.661000
     33 C14         -5.3060     4.5100    -1.2660 ca         1 6ZK       0.361900
     34 H1          11.2950     0.0820    -0.4820 hn         1 6ZK       0.314000
     35 H2           9.8850    -0.8890    -0.8510 hn         1 6ZK       0.314000
     36 H3           8.0210    -1.2570    -0.9100 ha         1 6ZK       0.124500
     37 H4           5.5950    -1.5320    -0.8910 ha         1 6ZK       0.119500
     38 H5           7.5870     2.6250     0.9810 ha         1 6ZK       0.124500
     39 H6           5.1510     2.3270     1.0110 ha         1 6ZK       0.119500
     40 H7           3.2120     2.2820    -0.2770 ha         1 6ZK       0.118500
     41 H8           0.8170     2.0230    -0.2600 ha         1 6ZK       0.127500
     42 H9           3.7210    -1.9460     0.4240 ha         1 6ZK       0.118500
     43 H10          1.3150    -2.2500     0.4400 ha         1 6ZK       0.127500
     44 H11         -1.1910     1.7740    -0.0350 ha         1 6ZK       0.138000
     45 H12         -5.3840    -3.0690     0.2650 h4         1 6ZK       0.055800
     46 H13         -4.8340     1.3620    -0.0300 hn         1 6ZK       0.534000
     47 H14         -3.0030     3.3770     0.8280 h1         1 6ZK       0.057200
     48 H15         -2.9680     3.3670    -0.9470 h1         1 6ZK       0.057200
     49 H16         -5.3890     3.4770     1.9940 ha         1 6ZK       0.125000
     50 H17         -7.5310     4.7880     1.8430 ha         1 6ZK       0.131000
     51 H18         -8.1500     5.8730    -0.3260 h4         1 6ZK       0.025100
     52 H19         -4.7080     4.4610    -2.1750 h4         1 6ZK       0.024100
@<TRIPOS>BOND
     1     1     2 2   
     2     2     3 1   
     3     2     4 1   
     4     3    34 1   
     5     3    35 1   
     6     4     5 ar  
     7     4     7 ar  
     8     5     6 ar  
     9     5    36 1   
    10     6     9 ar  
    11     6    37 1   
    12     7     8 ar  
    13     7    38 1   
    14     8     9 ar  
    15     8    39 1   
    16     9    10 1   
    17    10    11 ar  
    18    10    13 ar  
    19    11    12 ar  
    20    11    40 1   
    21    12    15 ar  
    22    12    41 1   
    23    13    14 ar  
    24    13    42 1   
    25    14    15 ar  
    26    14    43 1   
    27    15    16 1   
    28    16    17 2   
    29    16    21 1   
    30    17    18 1   
    31    18    19 2   
    32    18    23 1   
    33    19    20 1   
    34    19    25 1   
    35    21    22 2   
    36    21    44 1   
    37    22    23 1   
    38    22    26 1   
    39    23    24 1   
    40    24    25 2   
    41    25    45 1   
    42    26    27 1   
    43    26    46 1   
    44    27    28 1   
    45    27    47 1   
    46    27    48 1   
    47    28    29 ar  
    48    28    33 ar  
    49    29    30 ar  
    50    29    49 1   
    51    30    31 ar  
    52    30    50 1   
    53    31    32 ar  
    54    31    51 1   
    55    32    33 ar  
    56    33    52 1   
@<TRIPOS>SUBSTRUCTURE
     1 6ZK         1 TEMP              0 ****  ****    0 ROOT
