@<TRIPOS>MOLECULE
6ZL
  145   148     1     0     0
SMALL
abcg2


@<TRIPOS>ATOM
      1 C05         -1.2080     5.7610     2.2720 c3         1 6ZL      -0.074900
      2 C06         -0.9590     4.3330     2.7390 c3         1 6ZL      -0.072400
      3 C07         -0.5340     3.3990     1.6120 c3         1 6ZL      -0.077400
      4 C08         -0.3230     1.9680     2.0950 c3         1 6ZL      -0.064400
      5 C09         -0.0400     0.9070     1.0120 c3         1 6ZL      -0.040000
      6 C10          0.3390    -0.4040     1.7260 c3         1 6ZL      -0.064400
      7 C11          0.5870    -1.6310     0.8550 c3         1 6ZL      -0.077400
      8 C12          0.8210    -2.8800     1.6970 c3         1 6ZL      -0.072400
      9 C13          1.2780    -4.0800     0.8780 c3         1 6ZL      -0.074900
     10 C14          1.4900    -5.3330     1.7180 c3         1 6ZL      -0.074900
     11 C15          2.1540    -6.4710     0.9540 c3         1 6ZL      -0.074900
     12 C16          2.3480    -7.7270     1.7960 c3         1 6ZL      -0.074900
     13 C17          3.0660    -8.8390     1.0440 c3         1 6ZL      -0.088100
     14 C18         -1.2690     0.7070     0.1210 c3         1 6ZL       0.168100
     15 O19         -2.3000     0.1100     0.8810 os         1 6ZL      -0.449500
     16 C20         -3.3410    -0.4450     0.1780 c6         1 6ZL       0.363800
     17 O21         -4.2620     0.5650    -0.1390 os         1 6ZL      -0.466000
     18 C22         -5.3720     0.1080    -0.8850 c6         1 6ZL       0.160800
     19 C23         -6.1940     1.3210    -1.2640 c3         1 6ZL       0.163600
     20 O24         -5.3990     2.1640    -2.0670 oh         1 6ZL      -0.714000
     21 C25         -6.1580    -0.9030    -0.0370 c6         1 6ZL       0.154800
     22 O26         -7.2260    -1.4680    -0.7600 os         1 6ZL      -0.497000
     23 C27         -8.5450    -1.1390    -0.4180 c6         1 6ZL       0.364800
     24 O28         -9.1520    -0.3760    -1.4100 os         1 6ZL      -0.452500
     25 C29         -9.2810    -0.9960    -2.6820 c6         1 6ZL       0.169800
     26 C30         -9.9550     0.0090    -3.5920 c3         1 6ZL       0.169600
     27 O31         -9.1050     1.1210    -3.7450 oh         1 6ZL      -0.718000
     28 C32        -10.0860    -2.2910    -2.5610 c6         1 6ZL       0.151300
     29 O33        -10.1060    -2.9010    -3.8280 oh         1 6ZL      -0.719000
     30 C34         -9.4590    -3.1940    -1.5060 c6         1 6ZL       0.105300
     31 O35        -10.2870    -4.3270    -1.3720 oh         1 6ZL      -0.667500
     32 C36         -9.3290    -2.4330    -0.1900 c6         1 6ZL       0.113800
     33 O37         -8.7850    -3.2210     0.8340 oh         1 6ZL      -0.726500
     34 C38         -5.2320    -2.0430     0.3730 c6         1 6ZL       0.167300
     35 O39         -5.9540    -2.9190     1.2090 oh         1 6ZL      -0.728500
     36 C40         -3.9980    -1.4930     1.0710 c6         1 6ZL       0.112300
     37 O41         -3.1300    -2.5700     1.3200 oh         1 6ZL      -0.724500
     38 C42          1.0790     1.3530     0.0730 c3         1 6ZL       0.168100
     39 O43          2.2360     1.6640     0.8260 os         1 6ZL      -0.449500
     40 C44          3.4330     1.4920     0.1700 c6         1 6ZL       0.363800
     41 O45          3.7730     0.1320     0.2300 os         1 6ZL      -0.466000
     42 C46          4.9610    -0.1890    -0.4610 c6         1 6ZL       0.160800
     43 C47          5.1190    -1.6940    -0.4180 c3         1 6ZL       0.163600
     44 O48          4.0420    -2.2800    -1.1140 oh         1 6ZL      -0.714000
     45 C49          6.1360     0.5470     0.2020 c6         1 6ZL       0.154800
     46 O50          7.3310     0.3710    -0.5210 os         1 6ZL      -0.497000
     47 C51          8.3520    -0.4320     0.0100 c6         1 6ZL       0.364800
     48 O52          8.5760    -1.5480    -0.7890 os         1 6ZL      -0.452500
     49 C53          9.0100    -1.2870    -2.1160 c6         1 6ZL       0.169800
     50 C54          9.1590    -2.6300    -2.7980 c3         1 6ZL       0.169600
     51 O55          7.8950    -3.2470    -2.8580 oh         1 6ZL      -0.718000
     52 C56         10.3190    -0.4970    -2.0960 c6         1 6ZL       0.151300
     53 O57         10.6650    -0.2020    -3.4270 oh         1 6ZL      -0.719000
     54 C58         10.1430     0.7660    -1.2620 c6         1 6ZL       0.105300
     55 O59         11.3950     1.4100    -1.1980 oh         1 6ZL      -0.667500
     56 C60          9.6320     0.3980     0.1290 c6         1 6ZL       0.113800
     57 O61          9.4790     1.5170     0.9580 oh         1 6ZL      -0.726500
     58 C62          5.8460     2.0450     0.2390 c6         1 6ZL       0.167300
     59 O63          6.8900     2.6760     0.9450 oh         1 6ZL      -0.728500
     60 C64          4.4960     2.3160     0.8860 c6         1 6ZL       0.112300
     61 O65          4.2420     3.6940     0.7840 oh         1 6ZL      -0.724500
     62 H1          -0.2930     6.1620     1.8220 hc         1 6ZL       0.038450
     63 H2          -1.9580     5.7500     1.4730 hc         1 6ZL       0.038450
     64 H4          -0.1950     4.3320     3.5250 hc         1 6ZL       0.035200
     65 H5          -1.8710     3.9430     3.2050 hc         1 6ZL       0.035200
     66 H6          -1.2960     3.4310     0.8270 hc         1 6ZL       0.042950
     67 H7           0.3860     3.7810     1.1590 hc         1 6ZL       0.042950
     68 H8           0.4990     1.9590     2.8170 hc         1 6ZL       0.047950
     69 H9          -1.2080     1.6480     2.6540 hc         1 6ZL       0.047950
     70 H10          1.2380    -0.2190     2.3210 hc         1 6ZL       0.047950
     71 H11         -0.4460    -0.6300     2.4530 hc         1 6ZL       0.047950
     72 H12         -0.2570    -1.8130     0.1810 hc         1 6ZL       0.042950
     73 H13          1.4630    -1.4730     0.2200 hc         1 6ZL       0.042950
     74 H14          1.5790    -2.6670     2.4590 hc         1 6ZL       0.035200
     75 H15         -0.0940    -3.1340     2.2470 hc         1 6ZL       0.035200
     76 H16          0.5500    -4.2850     0.0850 hc         1 6ZL       0.038450
     77 H17          2.2110    -3.8150     0.3710 hc         1 6ZL       0.038450
     78 H18          2.1060    -5.0810     2.5880 hc         1 6ZL       0.036700
     79 H19          0.5280    -5.6720     2.1190 hc         1 6ZL       0.036700
     80 H20          1.5610    -6.7180     0.0660 hc         1 6ZL       0.036200
     81 H21          3.1270    -6.1320     0.5810 hc         1 6ZL       0.036200
     82 H22          2.9120    -7.4710     2.6980 hc         1 6ZL       0.036950
     83 H23          1.3730    -8.0860     2.1400 hc         1 6ZL       0.036950
     84 H24          3.1830    -9.7310     1.6600 hc         1 6ZL       0.031033
     85 H25          2.5160    -9.1270     0.1460 hc         1 6ZL       0.031033
     86 H26          4.0620    -8.5210     0.7290 hc         1 6ZL       0.031033
     87 H27         -1.6020     1.6660    -0.2930 h1         1 6ZL       0.038700
     88 H28         -1.0180     0.0660    -0.7340 h1         1 6ZL       0.038700
     89 H29         -2.9830    -0.9290    -0.7510 h2         1 6ZL       0.035200
     90 H30         -5.0340    -0.3980    -1.8050 h1         1 6ZL       0.061200
     91 H31         -7.0910     0.9950    -1.7960 h1         1 6ZL       0.044700
     92 H32         -6.5260     1.8260    -0.3450 h1         1 6ZL       0.044700
     93 H33         -5.9710     2.8400    -2.4410 ho         1 6ZL       0.506500
     94 H34         -6.5260    -0.3930     0.8660 h1         1 6ZL       0.065200
     95 H35         -8.5620    -0.5230     0.4890 h2         1 6ZL       0.083200
     96 H36         -8.2900    -1.2330    -3.0940 h1         1 6ZL       0.076700
     97 H37        -10.1630    -0.4770    -4.5510 h1         1 6ZL       0.036950
     98 H38        -10.9240     0.2890    -3.1550 h1         1 6ZL       0.036950
     99 H39         -9.5330     1.7440    -4.3380 ho         1 6ZL       0.504500
    100 H40        -11.1070    -2.0370    -2.2300 h1         1 6ZL       0.048700
    101 H41        -10.6220    -3.7120    -3.7640 ho         1 6ZL       0.525000
    102 H42         -8.4560    -3.4870    -1.8530 h1         1 6ZL       0.057200
    103 H43         -9.8620    -4.9380    -0.7610 ho         1 6ZL       0.463000
    104 H44        -10.3340    -2.1450     0.1380 h1         1 6ZL       0.089700
    105 H45         -7.8160    -3.2290     0.7660 ho         1 6ZL       0.537500
    106 H46         -4.9090    -2.5610    -0.5430 h1         1 6ZL       0.056200
    107 H47         -5.4440    -3.7270     1.3280 ho         1 6ZL       0.529500
    108 H48         -4.3100    -1.0010     2.0050 h1         1 6ZL       0.068200
    109 H49         -2.3990    -2.2510     1.8590 ho         1 6ZL       0.528500
    110 H50          1.2850     0.5560    -0.6480 h1         1 6ZL       0.038700
    111 H51          0.7700     2.2340    -0.5020 h1         1 6ZL       0.038700
    112 H52          3.3630     1.8160    -0.8850 h2         1 6ZL       0.035200
    113 H53          4.8950     0.1340    -1.5130 h1         1 6ZL       0.061200
    114 H54          6.0770    -1.9680    -0.8690 h1         1 6ZL       0.044700
    115 H55          5.1470    -2.0160     0.6330 h1         1 6ZL       0.044700
    116 H56          4.1850    -3.2300    -1.1350 ho         1 6ZL       0.506500
    117 H57          6.2460     0.1770     1.2320 h1         1 6ZL       0.065200
    118 H58          8.0630    -0.8180     0.9950 h2         1 6ZL       0.083200
    119 H59          8.2550    -0.7000    -2.6570 h1         1 6ZL       0.076700
    120 H60          9.5780    -2.4700    -3.7970 h1         1 6ZL       0.036950
    121 H61          9.8840    -3.2370    -2.2380 h1         1 6ZL       0.036950
    122 H62          7.9890    -4.0680    -3.3480 ho         1 6ZL       0.504500
    123 H63         11.0930    -1.1180    -1.6150 h1         1 6ZL       0.048700
    124 H64         11.4930     0.2910    -3.4200 ho         1 6ZL       0.525000
    125 H65          9.4030     1.4090    -1.7640 h1         1 6ZL       0.057200
    126 H66         11.2840     2.2310    -0.7080 ho         1 6ZL       0.463000
    127 H67         10.3830    -0.2420     0.6070 h1         1 6ZL       0.089700
    128 H68          8.6390     1.9650     0.7580 ho         1 6ZL       0.537500
    129 H69          5.8100     2.4050    -0.8000 h1         1 6ZL       0.056200
    130 H70          6.8220     3.6280     0.8180 ho         1 6ZL       0.529500
    131 H71          4.5340     1.9870     1.9350 h1         1 6ZL       0.068200
    132 H72          3.4580     3.8960     1.3040 ho         1 6ZL       0.528500
    133 C1          -1.6750     6.6890     3.3860 c3         1 6ZL      -0.074900
    134 C2          -1.9680     8.1070     2.9080 c3         1 6ZL      -0.074900
    135 C3          -2.4620     9.0270     4.0170 c3         1 6ZL      -0.074900
    136 C4          -2.7690    10.4370     3.5290 c3         1 6ZL      -0.088100
    137 H3          -2.5760     6.2730     3.8480 hc         1 6ZL       0.036700
    138 H73         -0.9170     6.7220     4.1770 hc         1 6ZL       0.036700
    139 H74         -1.0650     8.5340     2.4570 hc         1 6ZL       0.036200
    140 H75         -2.7160     8.0700     2.1080 hc         1 6ZL       0.036200
    141 H76         -3.3600     8.5950     4.4700 hc         1 6ZL       0.036950
    142 H77         -1.7140     9.0710     4.8140 hc         1 6ZL       0.036950
    143 H78         -1.8810    10.9140     3.1100 hc         1 6ZL       0.031033
    144 H79         -3.5340    10.4270     2.7510 hc         1 6ZL       0.031033
    145 H80         -3.1310    11.0700     4.3390 hc         1 6ZL       0.031033
@<TRIPOS>BOND
     1     1     2 1   
     2     1    62 1   
     3     1    63 1   
     4     1   133 1   
     5     2     3 1   
     6     2    64 1   
     7     2    65 1   
     8     3     4 1   
     9     3    66 1   
    10     3    67 1   
    11     4     5 1   
    12     4    68 1   
    13     4    69 1   
    14     5     6 1   
    15     5    14 1   
    16     5    38 1   
    17     6     7 1   
    18     6    70 1   
    19     6    71 1   
    20     7     8 1   
    21     7    72 1   
    22     7    73 1   
    23     8     9 1   
    24     8    74 1   
    25     8    75 1   
    26     9    10 1   
    27     9    76 1   
    28     9    77 1   
    29    10    11 1   
    30    10    78 1   
    31    10    79 1   
    32    11    12 1   
    33    11    80 1   
    34    11    81 1   
    35    12    13 1   
    36    12    82 1   
    37    12    83 1   
    38    13    84 1   
    39    13    85 1   
    40    13    86 1   
    41    14    15 1   
    42    14    87 1   
    43    14    88 1   
    44    15    16 1   
    45    16    17 1   
    46    16    36 1   
    47    16    89 1   
    48    17    18 1   
    49    18    19 1   
    50    18    21 1   
    51    18    90 1   
    52    19    20 1   
    53    19    91 1   
    54    19    92 1   
    55    20    93 1   
    56    21    22 1   
    57    21    34 1   
    58    21    94 1   
    59    22    23 1   
    60    23    24 1   
    61    23    32 1   
    62    23    95 1   
    63    24    25 1   
    64    25    26 1   
    65    25    28 1   
    66    25    96 1   
    67    26    27 1   
    68    26    97 1   
    69    26    98 1   
    70    27    99 1   
    71    28    29 1   
    72    28    30 1   
    73    28   100 1   
    74    29   101 1   
    75    30    31 1   
    76    30    32 1   
    77    30   102 1   
    78    31   103 1   
    79    32    33 1   
    80    32   104 1   
    81    33   105 1   
    82    34    35 1   
    83    34    36 1   
    84    34   106 1   
    85    35   107 1   
    86    36    37 1   
    87    36   108 1   
    88    37   109 1   
    89    38    39 1   
    90    38   110 1   
    91    38   111 1   
    92    39    40 1   
    93    40    41 1   
    94    40    60 1   
    95    40   112 1   
    96    41    42 1   
    97    42    43 1   
    98    42    45 1   
    99    42   113 1   
   100    43    44 1   
   101    43   114 1   
   102    43   115 1   
   103    44   116 1   
   104    45    46 1   
   105    45    58 1   
   106    45   117 1   
   107    46    47 1   
   108    47    48 1   
   109    47    56 1   
   110    47   118 1   
   111    48    49 1   
   112    49    50 1   
   113    49    52 1   
   114    49   119 1   
   115    50    51 1   
   116    50   120 1   
   117    50   121 1   
   118    51   122 1   
   119    52    53 1   
   120    52    54 1   
   121    52   123 1   
   122    53   124 1   
   123    54    55 1   
   124    54    56 1   
   125    54   125 1   
   126    55   126 1   
   127    56    57 1   
   128    56   127 1   
   129    57   128 1   
   130    58    59 1   
   131    58    60 1   
   132    58   129 1   
   133    59   130 1   
   134    60    61 1   
   135    60   131 1   
   136    61   132 1   
   137   133   134 1   
   138   133   137 1   
   139   133   138 1   
   140   134   135 1   
   141   134   139 1   
   142   134   140 1   
   143   135   136 1   
   144   135   141 1   
   145   135   142 1   
   146   136   143 1   
   147   136   144 1   
   148   136   145 1   
@<TRIPOS>SUBSTRUCTURE
     1 6ZL         1 TEMP              0 ****  ****    0 ROOT
