@<TRIPOS>MOLECULE
6ZL
  145   148     1     0     0
SMALL
No Charge or Current Charge


@<TRIPOS>ATOM
      1 C05         -1.4730     4.9760     1.7980 c3         1 6ZL      -0.074900
      2 C06         -1.0810     3.6460     2.4790 c3         1 6ZL      -0.072400
      3 C07         -0.7490     2.5260     1.4690 c3         1 6ZL      -0.077400
      4 C08         -0.3600     1.1920     2.1620 c3         1 6ZL      -0.064400
      5 C09         -0.0040    -0.0200     1.2250 c3         1 6ZL      -0.040000
      6 C10          0.3380    -1.2460     2.1470 c3         1 6ZL      -0.064400
      7 C11          0.7370    -2.5690     1.4380 c3         1 6ZL      -0.077400
      8 C12          1.0540    -3.7060     2.4340 c3         1 6ZL      -0.072400
      9 C13          1.4560    -5.0240     1.7370 c3         1 6ZL      -0.074900
     10 C14          1.7750    -6.1610     2.7330 c3         1 6ZL      -0.074900
     11 C15          2.1770    -7.4790     2.0360 c3         1 6ZL      -0.074900
     12 C16          2.4960    -8.6160     3.0310 c3         1 6ZL      -0.074900
     13 C17          2.8970    -9.9310     2.3360 c3         1 6ZL      -0.088100
     14 C18         -1.2060    -0.3560     0.2860 c3         1 6ZL       0.168100
     15 O19         -2.3650    -0.6740     1.0790 os         1 6ZL      -0.449500
     16 C20         -3.5600    -0.9940     0.3520 c6         1 6ZL       0.363800
     17 O21         -3.9970     0.1640    -0.3860 os         1 6ZL      -0.466000
     18 C22         -5.1700    -0.0710    -1.2120 c6         1 6ZL       0.160800
     19 C23         -5.4740     1.2270    -2.0300 c3         1 6ZL       0.163600
     20 O24         -4.3640     1.6620    -2.8440 oh         1 6ZL      -0.714000
     21 C25         -6.3750    -0.4960    -0.3190 c6         1 6ZL       0.154800
     22 O26         -7.5540    -0.7460    -1.1230 os         1 6ZL      -0.497000
     23 C27         -8.8200    -0.5890    -0.4440 c6         1 6ZL       0.364800
     24 O28         -9.4980     0.5600    -0.9920 os         1 6ZL      -0.452500
     25 C29         -9.8840     0.4320    -2.3900 c6         1 6ZL       0.169800
     26 C30        -10.5350     1.7790    -2.8460 c3         1 6ZL       0.169600
     27 O31         -9.6820     2.9270    -2.6470 oh         1 6ZL      -0.718000
     28 C32        -10.8470    -0.7850    -2.5670 c6         1 6ZL       0.151300
     29 O33        -11.2310    -0.9880    -3.9380 oh         1 6ZL      -0.719000
     30 C34        -10.1530    -2.0710    -2.0340 c6         1 6ZL       0.105300
     31 O35        -11.0270    -3.2090    -2.1470 oh         1 6ZL      -0.667500
     32 C36         -9.7110    -1.8760    -0.5560 c6         1 6ZL       0.113800
     33 O37         -9.0420    -3.0700    -0.0790 oh         1 6ZL      -0.726500
     34 C38         -5.9620    -1.7480     0.5270 c6         1 6ZL       0.167300
     35 O39         -6.9970    -2.2060     1.4170 oh         1 6ZL      -0.728500
     36 C40         -4.6860    -1.4250     1.3450 c6         1 6ZL       0.112300
     37 O41         -4.3110    -2.5580     2.1660 oh         1 6ZL      -0.724500
     38 C42          1.2110     0.3330     0.3090 c3         1 6ZL       0.168100
     39 O43          2.3570     0.6370     1.1240 os         1 6ZL      -0.449500
     40 C44          3.5630     0.9680     0.4190 c6         1 6ZL       0.363800
     41 O45          4.0100    -0.1770    -0.3320 os         1 6ZL      -0.466000
     42 C46          5.1950     0.0720    -1.1380 c6         1 6ZL       0.160800
     43 C47          5.5100    -1.2130    -1.9730 c3         1 6ZL       0.163600
     44 O48          4.4120    -1.6340    -2.8100 oh         1 6ZL      -0.714000
     45 C49          6.3870     0.4810    -0.2210 c6         1 6ZL       0.154800
     46 O50          7.5780     0.7450    -1.0040 os         1 6ZL      -0.497000
     47 C51          8.8340     0.5760    -0.3100 c6         1 6ZL       0.364800
     48 O52          9.5190    -0.5640    -0.8670 os         1 6ZL      -0.452500
     49 C53          9.9250    -0.4120    -2.2580 c6         1 6ZL       0.169800
     50 C54         10.5830    -1.7520    -2.7280 c3         1 6ZL       0.169600
     51 O55          9.7270    -2.9020    -2.5600 oh         1 6ZL      -0.718000
     52 C56         10.8900     0.8070    -2.4000 c6         1 6ZL       0.151300
     53 O57         11.2930     1.0340    -3.7630 oh         1 6ZL      -0.719000
     54 C58         10.1880     2.0850    -1.8560 c6         1 6ZL       0.105300
     55 O59         11.0640     3.2240    -1.9370 oh         1 6ZL      -0.667500
     56 C60          9.7270     1.8640    -0.3880 c6         1 6ZL       0.113800
     57 O61          9.0500     3.0510     0.1000 oh         1 6ZL      -0.726500
     58 C62          5.9630     1.7180     0.6400 c6         1 6ZL       0.167300
     59 O63          6.9840     2.1620     1.5530 oh         1 6ZL      -0.728500
     60 C64          4.6750     1.3830     1.4350 c6         1 6ZL       0.112300
     61 O65          4.2880     2.5020     2.2690 oh         1 6ZL      -0.724500
     62 H1          -0.6500     5.3060     1.1520 hc         1 6ZL       0.038450
     63 H2          -2.3420     4.8060     1.1500 hc         1 6ZL       0.038450
     64 H4          -0.2120     3.8170     3.1270 hc         1 6ZL       0.035200
     65 H5          -1.9030     3.3170     3.1260 hc         1 6ZL       0.035200
     66 H6          -1.6230     2.3700     0.8260 hc         1 6ZL       0.042950
     67 H7           0.0710     2.8670     0.8280 hc         1 6ZL       0.042950
     68 H8           0.4890     1.3890     2.8280 hc         1 6ZL       0.047950
     69 H9          -1.1860     0.9000     2.8230 hc         1 6ZL       0.047950
     70 H10          1.1550    -0.9660     2.8240 hc         1 6ZL       0.047950
     71 H11         -0.5210    -1.4540     2.7970 hc         1 6ZL       0.047950
     72 H12         -0.0740    -2.8990     0.7800 hc         1 6ZL       0.042950
     73 H13          1.6200    -2.4020     0.8100 hc         1 6ZL       0.042950
     74 H14          1.8680    -3.3870     3.0970 hc         1 6ZL       0.035200
     75 H15          0.1760    -3.8860     3.0670 hc         1 6ZL       0.035200
     76 H16          0.6430    -5.3430     1.0740 hc         1 6ZL       0.038450
     77 H17          2.3340    -4.8430     1.1040 hc         1 6ZL       0.038450
     78 H18          2.5880    -5.8410     3.3960 hc         1 6ZL       0.036700
     79 H19          0.8970    -6.3410     3.3660 hc         1 6ZL       0.036700
     80 H20          1.3640    -7.7990     1.3730 hc         1 6ZL       0.036200
     81 H21          3.0550    -7.2980     1.4030 hc         1 6ZL       0.036200
     82 H22          3.3110    -8.3010     3.6950 hc         1 6ZL       0.036950
     83 H23          1.6200    -8.8010     3.6650 hc         1 6ZL       0.036950
     84 H24          3.1140   -10.7070     3.0810 hc         1 6ZL       0.031033
     85 H25          2.0880   -10.2920     1.6910 hc         1 6ZL       0.031033
     86 H26          3.7940    -9.7880     1.7210 hc         1 6ZL       0.031033
     87 H27         -1.4110     0.4990    -0.3700 h1         1 6ZL       0.038700
     88 H28         -0.9470    -1.2000    -0.3660 h1         1 6ZL       0.038700
     89 H29         -3.3480    -1.8190    -0.3460 h2         1 6ZL       0.035200
     90 H30         -4.9460    -0.8780    -1.9250 h1         1 6ZL       0.061200
     91 H31         -6.3500     1.0350    -2.6650 h1         1 6ZL       0.044700
     92 H32         -5.7560     2.0180    -1.3210 h1         1 6ZL       0.044700
     93 H33         -4.6300     2.5130    -3.2640 ho         1 6ZL       0.506500
     94 H34         -6.5870     0.3410     0.3630 h1         1 6ZL       0.065200
     95 H35         -8.6440    -0.4010     0.6270 h2         1 6ZL       0.083200
     96 H36         -8.9810     0.2710    -2.9980 h1         1 6ZL       0.076700
     97 H37        -10.7970     1.6910    -3.9090 h1         1 6ZL       0.036950
     98 H38        -11.4750     1.9070    -2.2910 h1         1 6ZL       0.036950
     99 H39        -10.2080     3.7220    -2.8970 ho         1 6ZL       0.504500
    100 H40        -11.7440    -0.6000    -1.9570 h1         1 6ZL       0.048700
    101 H41        -11.5250    -1.9310    -3.9720 ho         1 6ZL       0.525000
    102 H42         -9.2460    -2.2430    -2.6350 h1         1 6ZL       0.057200
    103 H43        -10.6520    -3.8730    -1.5220 ho         1 6ZL       0.463000
    104 H44        -10.6120    -1.6900     0.0490 h1         1 6ZL       0.089700
    105 H45         -8.2590    -2.7560     0.4670 ho         1 6ZL       0.537500
    106 H46         -5.7120    -2.5560    -0.1780 h1         1 6ZL       0.056200
    107 H47         -6.4880    -2.6260     2.1590 ho         1 6ZL       0.529500
    108 H48         -4.9000    -0.5590     1.9900 h1         1 6ZL       0.068200
    109 H49         -3.3920    -2.3740     2.4810 ho         1 6ZL       0.528500
    110 H50          1.4250    -0.5120    -0.3580 h1         1 6ZL       0.038700
    111 H51          0.9610     1.1870    -0.3330 h1         1 6ZL       0.038700
    112 H52          3.3610     1.8050    -0.2680 h2         1 6ZL       0.035200
    113 H53          4.9810     0.8910    -1.8400 h1         1 6ZL       0.061200
    114 H54          6.3950    -1.0100    -2.5920 h1         1 6ZL       0.044700
    115 H55          5.7820    -2.0150    -1.2740 h1         1 6ZL       0.044700
    116 H56          4.6840    -2.4780    -3.2400 ho         1 6ZL       0.506500
    117 H57          6.5890    -0.3680     0.4500 h1         1 6ZL       0.065200
    118 H58          8.6430     0.3700     0.7550 h2         1 6ZL       0.083200
    119 H59          9.0310    -0.2410    -2.8750 h1         1 6ZL       0.076700
    120 H60         10.8600    -1.6450    -3.7850 h1         1 6ZL       0.036950
    121 H61         11.5140    -1.8890    -2.1610 h1         1 6ZL       0.036950
    122 H62         10.2560    -3.6940    -2.8160 ho         1 6ZL       0.504500
    123 H63         11.7790     0.6120    -1.7810 h1         1 6ZL       0.048700
    124 H64         11.5880     1.9770    -3.7760 ho         1 6ZL       0.525000
    125 H65          9.2900     2.2670    -2.4660 h1         1 6ZL       0.057200
    126 H66         10.6800     3.8770    -1.3060 ho         1 6ZL       0.463000
    127 H67         10.6190     1.6680     0.2260 h1         1 6ZL       0.089700
    128 H68          8.2600     2.7270     0.6290 ho         1 6ZL       0.537500
    129 H69          5.7220     2.5380    -0.0540 h1         1 6ZL       0.056200
    130 H70          6.4650     2.5690     2.2940 ho         1 6ZL       0.529500
    131 H71          4.8800     0.5050     2.0680 h1         1 6ZL       0.068200
    132 H72          3.3660     2.3120     2.5680 ho         1 6ZL       0.528500
    133 C1          -1.8060     6.0960     2.8080 c3         1 6ZL      -0.074900
    134 C2          -2.1990     7.4260     2.1270 c3         1 6ZL      -0.074900
    135 C3          -2.5320     8.5460     3.1360 c3         1 6ZL      -0.074900
    136 C4          -2.9240     9.8730     2.4570 c3         1 6ZL      -0.088100
    137 H3          -2.6280     5.7660     3.4540 hc         1 6ZL       0.036700
    138 H73         -0.9370     6.2670     3.4560 hc         1 6ZL       0.036700
    139 H74         -1.3760     7.7560     1.4800 hc         1 6ZL       0.036200
    140 H75         -3.0680     7.2550     1.4790 hc         1 6ZL       0.036200
    141 H76         -3.3560     8.2200     3.7830 hc         1 6ZL       0.036950
    142 H77         -1.6650     8.7210     3.7850 hc         1 6ZL       0.036950
    143 H78         -2.1060    10.2440     1.8290 hc         1 6ZL       0.031033
    144 H79         -3.8120     9.7390     1.8270 hc         1 6ZL       0.031033
    145 H80         -3.1510    10.6360     3.2110 hc         1 6ZL       0.031033
@<TRIPOS>BOND
     1     1     2 1   
     2     1    62 1   
     3     1    63 1   
     4     1   133 1   
     5     2     3 1   
     6     2    64 1   
     7     2    65 1   
     8     3     4 1   
     9     3    66 1   
    10     3    67 1   
    11     4     5 1   
    12     4    68 1   
    13     4    69 1   
    14     5     6 1   
    15     5    14 1   
    16     5    38 1   
    17     6     7 1   
    18     6    70 1   
    19     6    71 1   
    20     7     8 1   
    21     7    72 1   
    22     7    73 1   
    23     8     9 1   
    24     8    74 1   
    25     8    75 1   
    26     9    10 1   
    27     9    76 1   
    28     9    77 1   
    29    10    11 1   
    30    10    78 1   
    31    10    79 1   
    32    11    12 1   
    33    11    80 1   
    34    11    81 1   
    35    12    13 1   
    36    12    82 1   
    37    12    83 1   
    38    13    84 1   
    39    13    85 1   
    40    13    86 1   
    41    14    15 1   
    42    14    87 1   
    43    14    88 1   
    44    15    16 1   
    45    16    17 1   
    46    16    36 1   
    47    16    89 1   
    48    17    18 1   
    49    18    19 1   
    50    18    21 1   
    51    18    90 1   
    52    19    20 1   
    53    19    91 1   
    54    19    92 1   
    55    20    93 1   
    56    21    22 1   
    57    21    34 1   
    58    21    94 1   
    59    22    23 1   
    60    23    24 1   
    61    23    32 1   
    62    23    95 1   
    63    24    25 1   
    64    25    26 1   
    65    25    28 1   
    66    25    96 1   
    67    26    27 1   
    68    26    97 1   
    69    26    98 1   
    70    27    99 1   
    71    28    29 1   
    72    28    30 1   
    73    28   100 1   
    74    29   101 1   
    75    30    31 1   
    76    30    32 1   
    77    30   102 1   
    78    31   103 1   
    79    32    33 1   
    80    32   104 1   
    81    33   105 1   
    82    34    35 1   
    83    34    36 1   
    84    34   106 1   
    85    35   107 1   
    86    36    37 1   
    87    36   108 1   
    88    37   109 1   
    89    38    39 1   
    90    38   110 1   
    91    38   111 1   
    92    39    40 1   
    93    40    41 1   
    94    40    60 1   
    95    40   112 1   
    96    41    42 1   
    97    42    43 1   
    98    42    45 1   
    99    42   113 1   
   100    43    44 1   
   101    43   114 1   
   102    43   115 1   
   103    44   116 1   
   104    45    46 1   
   105    45    58 1   
   106    45   117 1   
   107    46    47 1   
   108    47    48 1   
   109    47    56 1   
   110    47   118 1   
   111    48    49 1   
   112    49    50 1   
   113    49    52 1   
   114    49   119 1   
   115    50    51 1   
   116    50   120 1   
   117    50   121 1   
   118    51   122 1   
   119    52    53 1   
   120    52    54 1   
   121    52   123 1   
   122    53   124 1   
   123    54    55 1   
   124    54    56 1   
   125    54   125 1   
   126    55   126 1   
   127    56    57 1   
   128    56   127 1   
   129    57   128 1   
   130    58    59 1   
   131    58    60 1   
   132    58   129 1   
   133    59   130 1   
   134    60    61 1   
   135    60   131 1   
   136    61   132 1   
   137   133   134 1   
   138   133   137 1   
   139   133   138 1   
   140   134   135 1   
   141   134   139 1   
   142   134   140 1   
   143   135   136 1   
   144   135   141 1   
   145   135   142 1   
   146   136   143 1   
   147   136   144 1   
   148   136   145 1   
@<TRIPOS>SUBSTRUCTURE
     1 6ZL         1 TEMP              0 ****  ****    0 ROOT
