@<TRIPOS>MOLECULE
6ZO
   53    56     1     0     0
SMALL
No Charge or Current Charge


@<TRIPOS>ATOM
      1 C7          -5.2360     1.4580    -1.1320 c3         1 6ZO       0.228900
      2 C6          -8.0510    -0.5310     1.5130 ca         1 6ZO      -0.092000
      3 C1          -6.2270     0.7640    -0.2080 ca         1 6ZO      -0.077300
      4 C5          -7.8190    -1.0340     0.2230 ca         1 6ZO       0.122500
      5 C4          -7.3690     0.6170     1.9440 ca         1 6ZO       0.122500
      6 C3          -6.9110    -0.3910    -0.6350 ca         1 6ZO      -0.086500
      7 C2          -6.4600     1.2640     1.0900 ca         1 6ZO      -0.086500
      8 C30         10.5780     0.2580     1.3210 c          1 6ZO       0.687100
      9 O29          9.6510    -0.7680     1.3330 os         1 6ZO      -0.281200
     10 C26          8.4260    -0.3050     0.9120 ca         1 6ZO       0.033100
     11 C24          7.2220    -1.0020     0.7740 ca         1 6ZO      -0.019000
     12 N31          9.8550     1.3350     0.8790 ns         1 6ZO      -0.522600
     13 C28          8.5280     1.0290     0.6180 ca         1 6ZO       0.021600
     14 C27          7.4500     1.7840     0.1620 ca         1 6ZO      -0.125000
     15 C25          6.2150     1.1130     0.0100 ca         1 6ZO      -0.059000
     16 C23          6.0840    -0.2800     0.3150 ca         1 6ZO      -0.183600
     17 C21          4.7660    -1.0130     0.1550 c          1 6ZO       0.585700
     18 O22          4.7170    -2.2290     0.2980 o          1 6ZO      -0.522100
     19 C20          3.5000    -0.2180    -0.1940 c3         1 6ZO      -0.177400
     20 N16          0.9660    -0.2220    -0.3340 n3         1 6ZO      -0.727600
     21 C14          0.8460     0.3830    -1.6900 c6         1 6ZO       0.146300
     22 C12         -0.3920     1.3110    -1.8230 c6         1 6ZO       0.109000
     23 C15         -0.2640    -1.0070    -0.0530 c6         1 6ZO       0.146300
     24 C13         -1.5560    -0.1480    -0.1090 c6         1 6ZO       0.109000
     25 N11         -1.6740     0.7520    -1.3000 n          1 6ZO      -0.406800
     26 C9          -2.8880     1.3840    -1.6240 c          1 6ZO       0.649100
     27 O10         -2.9860     2.2620    -2.4690 o          1 6ZO      -0.544000
     28 O8          -3.9360     0.8980    -0.8940 os         1 6ZO      -0.459100
     29 Cl19        -8.6680    -2.4760    -0.3210 cl         1 6ZO      -0.189500
     30 Cl18        -7.6520     1.2480     3.5610 cl         1 6ZO      -0.189500
     31 H1          -5.5400     1.3100    -2.1770 h1         1 6ZO       0.062700
     32 H2          -5.2390     2.5380    -0.9300 h1         1 6ZO       0.062700
     33 H3          -8.7530    -1.0300     2.1750 ha         1 6ZO       0.146000
     34 H4          -6.7380    -0.7940    -1.6310 ha         1 6ZO       0.137500
     35 H5          -5.9340     2.1500     1.4380 ha         1 6ZO       0.137500
     36 H6           7.1750    -2.0620     1.0170 ha         1 6ZO       0.160000
     37 H7          10.2720     2.2530     0.7640 hn         1 6ZO       0.478000
     38 H8           7.5540     2.8420    -0.0690 ha         1 6ZO       0.131000
     39 H9           5.3660     1.6890    -0.3510 ha         1 6ZO       0.122000
     40 H10          3.4510     0.6550     0.4650 hc         1 6ZO       0.070200
     41 H11          3.6680     0.2400    -1.1740 hc         1 6ZO       0.070200
     42 H12          2.2410    -1.8320    -0.9010 h1         1 6ZO       0.048700
     43 H13          2.1490    -1.5280     0.8360 h1         1 6ZO       0.048700
     44 H15          1.7350     0.9780    -1.9400 h1         1 6ZO       0.043200
     45 H16          0.7710    -0.4110    -2.4490 h1         1 6ZO       0.043200
     46 H17         -0.1820     2.2430    -1.2800 h1         1 6ZO       0.063700
     47 H18         -0.5120     1.5780    -2.8820 h1         1 6ZO       0.063700
     48 H19         -0.3600    -1.8260    -0.7820 h1         1 6ZO       0.043200
     49 H20         -0.2040    -1.4740     0.9420 h1         1 6ZO       0.043200
     50 H21         -2.4160    -0.8310    -0.0680 h1         1 6ZO       0.063700
     51 H22         -1.5970     0.4760     0.7950 h1         1 6ZO       0.063700
     52 C17          2.1930    -1.0350    -0.1450 c3         1 6ZO       0.177800
     53 O32         11.7570     0.2180     1.6290 o          1 6ZO      -0.495000
@<TRIPOS>BOND
     1     1     3 1   
     2     1    28 1   
     3     1    31 1   
     4     1    32 1   
     5     2     4 ar  
     6     2     5 ar  
     7     2    33 1   
     8     3     6 ar  
     9     3     7 ar  
    10     4     6 ar  
    11     4    29 1   
    12     5     7 ar  
    13     5    30 1   
    14     6    34 1   
    15     7    35 1   
    16     8     9 1   
    17     8    12 1   
    18     8    53 2   
    19     9    10 1   
    20    10    11 ar  
    21    10    13 ar  
    22    11    16 ar  
    23    11    36 1   
    24    12    13 1   
    25    12    37 1   
    26    13    14 ar  
    27    14    15 ar  
    28    14    38 1   
    29    15    16 ar  
    30    15    39 1   
    31    16    17 1   
    32    17    18 2   
    33    17    19 1   
    34    19    40 1   
    35    19    41 1   
    36    19    52 1   
    37    20    21 1   
    38    20    23 1   
    39    20    52 1   
    40    21    22 1   
    41    21    44 1   
    42    21    45 1   
    43    22    25 1   
    44    22    46 1   
    45    22    47 1   
    46    23    24 1   
    47    23    48 1   
    48    23    49 1   
    49    24    25 1   
    50    24    50 1   
    51    24    51 1   
    52    25    26 1   
    53    26    27 2   
    54    26    28 1   
    55    42    52 1   
    56    43    52 1   
@<TRIPOS>SUBSTRUCTURE
     1 6ZO         1 TEMP              0 ****  ****    0 ROOT
