@<TRIPOS>MOLECULE
6ZO
   53    56     1     0     0
SMALL
abcg2


@<TRIPOS>ATOM
      1 C7          -5.0320     0.7890    -1.5310 c3         1 6ZO       0.228900
      2 C6          -7.9990    -0.5800     1.2600 ca         1 6ZO      -0.092000
      3 C1          -6.0480     0.2920    -0.5440 ca         1 6ZO      -0.077300
      4 C5          -7.9890    -1.0230    -0.0500 ca         1 6ZO       0.122500
      5 C4          -7.0100     0.3120     1.6480 ca         1 6ZO       0.122500
      6 C3          -7.0260    -0.6030    -0.9550 ca         1 6ZO      -0.086500
      7 C2          -6.0380     0.7550     0.7690 ca         1 6ZO      -0.086500
      8 C30         10.4560    -0.1060     0.6500 c          1 6ZO       0.687100
      9 O29          9.5130    -1.0890     0.6060 os         1 6ZO      -0.281200
     10 C26          8.2850    -0.5060     0.4970 ca         1 6ZO       0.033100
     11 C24          7.0640    -1.1140     0.4210 ca         1 6ZO      -0.019000
     12 N31          9.8000     1.0860     0.5690 ns         1 6ZO      -0.522600
     13 C28          8.4470     0.8760     0.4720 ca         1 6ZO       0.021600
     14 C27          7.3570     1.7160     0.3670 ca         1 6ZO      -0.125000
     15 C25          6.1070     1.1130     0.2860 ca         1 6ZO      -0.059000
     16 C23          5.9450    -0.2740     0.3120 ca         1 6ZO      -0.183600
     17 C21          4.6030    -0.9120     0.2260 c          1 6ZO       0.585700
     18 O22          4.4970    -2.1210     0.2660 o          1 6ZO      -0.522100
     19 C20          3.3930    -0.0240     0.0930 c3         1 6ZO      -0.177400
     20 N16          0.9470     0.1170    -0.0480 n3         1 6ZO      -0.727600
     21 C14          0.7720     0.6730    -1.3770 c6         1 6ZO       0.146300
     22 C12         -0.3400     1.7050    -1.3890 c6         1 6ZO       0.109000
     23 C15         -0.2850    -0.5080     0.3900 c6         1 6ZO       0.146300
     24 C13         -1.4190     0.5020     0.4230 c6         1 6ZO       0.109000
     25 N11         -1.5680     1.1270    -0.8800 n          1 6ZO      -0.406800
     26 C9          -2.7220     1.2550    -1.5600 c          1 6ZO       0.649100
     27 O10         -2.8430     1.8120    -2.6340 o          1 6ZO      -0.544000
     28 O8          -3.7530     0.6870    -0.9190 os         1 6ZO      -0.459100
     29 CL19        -9.2030    -2.1420    -0.5670 cl         1 6ZO      -0.189500
     30 CL18        -6.9970     0.8820     3.2820 cl         1 6ZO      -0.189500
     31 H1          -5.0700     0.1950    -2.4470 h1         1 6ZO       0.062700
     32 H2          -5.2500     1.8260    -1.7960 h1         1 6ZO       0.062700
     33 H3          -8.7500    -0.9190     1.9600 ha         1 6ZO       0.146000
     34 H4          -7.0340    -0.9750    -1.9710 ha         1 6ZO       0.137500
     35 H5          -5.2790     1.4500     1.1030 ha         1 6ZO       0.137500
     36 H6           6.9630    -2.1900     0.4420 ha         1 6ZO       0.160000
     37 H7          10.2700     1.9780     0.5810 hn         1 6ZO       0.478000
     38 H8           7.4650     2.7910     0.3460 ha         1 6ZO       0.131000
     39 H9           5.2450     1.7600     0.2040 ha         1 6ZO       0.122000
     40 H10          3.3620     0.6660     0.9420 hc         1 6ZO       0.070200
     41 H11          3.5290     0.6090    -0.7900 hc         1 6ZO       0.070200
     42 H12          2.0870    -1.5000    -0.8130 h1         1 6ZO       0.048700
     43 H13          1.9750    -1.3870     0.9360 h1         1 6ZO       0.048700
     44 H15          1.6920     1.1630    -1.7010 h1         1 6ZO       0.043200
     45 H16          0.5480    -0.1150    -2.1170 h1         1 6ZO       0.043200
     46 H17         -0.0530     2.5570    -0.7640 h1         1 6ZO       0.063700
     47 H18         -0.4930     2.0710    -2.4010 h1         1 6ZO       0.063700
     48 H19         -0.5760    -1.3550    -0.2550 h1         1 6ZO       0.043200
     49 H20         -0.1490    -0.9030     1.3990 h1         1 6ZO       0.043200
     50 H21         -2.3370     0.0070     0.7240 h1         1 6ZO       0.063700
     51 H22         -1.1970     1.2740     1.1670 h1         1 6ZO       0.063700
     52 C17          2.0790    -0.7900     0.0280 c3         1 6ZO       0.177800
     53 O32         11.6300    -0.3300     0.7440 o          1 6ZO      -0.495000
@<TRIPOS>BOND
     1     1     3 1   
     2     1    28 1   
     3     1    31 1   
     4     1    32 1   
     5     2     4 ar  
     6     2     5 ar  
     7     2    33 1   
     8     3     6 ar  
     9     3     7 ar  
    10     4     6 ar  
    11     4    29 1   
    12     5     7 ar  
    13     5    30 1   
    14     6    34 1   
    15     7    35 1   
    16     8     9 1   
    17     8    12 1   
    18     8    53 2   
    19     9    10 1   
    20    10    11 ar  
    21    10    13 ar  
    22    11    16 ar  
    23    11    36 1   
    24    12    13 1   
    25    12    37 1   
    26    13    14 ar  
    27    14    15 ar  
    28    14    38 1   
    29    15    16 ar  
    30    15    39 1   
    31    16    17 1   
    32    17    18 2   
    33    17    19 1   
    34    19    40 1   
    35    19    41 1   
    36    19    52 1   
    37    20    21 1   
    38    20    23 1   
    39    20    52 1   
    40    21    22 1   
    41    21    44 1   
    42    21    45 1   
    43    22    25 1   
    44    22    46 1   
    45    22    47 1   
    46    23    24 1   
    47    23    48 1   
    48    23    49 1   
    49    24    25 1   
    50    24    50 1   
    51    24    51 1   
    52    25    26 1   
    53    26    27 2   
    54    26    28 1   
    55    42    52 1   
    56    43    52 1   
@<TRIPOS>SUBSTRUCTURE
     1 6ZO         1 TEMP              0 ****  ****    0 ROOT
