@<TRIPOS>MOLECULE
6ZP
   42    45     1     0     0
SMALL
abcg2


@<TRIPOS>ATOM
      1 N01          2.4150    -1.5980     2.6880 n1         1 6ZP      -0.461000
      2 C02          2.8450    -1.0630     1.7620 cg         1 6ZP       0.328000
      3 C03          3.4140    -0.3910     0.6370 ca         1 6ZP      -0.011000
      4 C04          4.8060    -0.3190     0.5430 ca         1 6ZP      -0.076000
      5 C05          5.3850     0.3590    -0.5130 ca         1 6ZP      -0.113000
      6 C06          4.5770     0.9630    -1.4690 ca         1 6ZP      -0.090000
      7 C07          3.1970     0.8910    -1.3720 ca         1 6ZP      -0.085000
      8 C08          2.5880     0.2060    -0.3250 ca         1 6ZP       0.017200
      9 C09          1.1200     0.0970    -0.2440 cc         1 6ZP      -0.195400
     10 C10          0.3580     1.3260    -0.1780 c          1 6ZP       0.565200
     11 O11          0.8320     2.4520    -0.1810 o          1 6ZP      -0.529000
     12 C12          0.4960    -1.1110    -0.2340 cd         1 6ZP      -0.032000
     13 C13         -0.9150    -1.2290    -0.1410 cd         1 6ZP      -0.263800
     14 C14         -1.5650    -2.5520    -0.1330 ca         1 6ZP       0.434800
     15 N15         -0.8330    -3.5660    -0.5890 nb         1 6ZP      -0.679000
     16 C16         -1.3610    -4.7820    -0.6090 ca         1 6ZP       0.350900
     17 C17         -2.6490    -5.0610    -0.1820 ca         1 6ZP      -0.169000
     18 C18         -3.4120    -4.0100     0.3050 ca         1 6ZP      -0.066000
     19 C19         -2.8650    -2.7400     0.3400 ca         1 6ZP      -0.164000
     20 C20         -1.6250    -0.0690    -0.0890 cc         1 6ZP       0.001600
     21 N21         -1.0210     1.1430    -0.1030 n          1 6ZP      -0.192200
     22 C22         -1.8450     2.3150    -0.0620 ca         1 6ZP       0.012600
     23 C23         -2.4280     2.7730    -1.2320 ca         1 6ZP      -0.090000
     24 C24         -3.2480     3.8920    -1.1890 ca         1 6ZP      -0.104500
     25 C25         -3.4740     4.5440     0.0160 ca         1 6ZP      -0.098000
     26 C26         -2.8810     4.0760     1.1820 ca         1 6ZP      -0.104500
     27 C27         -2.0640     2.9560     1.1470 ca         1 6ZP      -0.090000
     28 H1           5.4200    -0.7870     1.3000 ha         1 6ZP       0.124000
     29 H2           6.4620     0.4170    -0.5910 ha         1 6ZP       0.118000
     30 H3           5.0270     1.4910    -2.2990 ha         1 6ZP       0.117000
     31 H4           2.5840     1.3560    -2.1320 ha         1 6ZP       0.126000
     32 H5           1.0820    -2.0190    -0.3080 ha         1 6ZP       0.215000
     33 H6          -0.7250    -5.5760    -0.9860 h4         1 6ZP       0.021100
     34 H7          -3.0350    -6.0710    -0.2210 ha         1 6ZP       0.126000
     35 H8          -4.4180    -4.1780     0.6650 ha         1 6ZP       0.119000
     36 H9          -3.4380    -1.9170     0.7460 ha         1 6ZP       0.119000
     37 H10         -2.7050    -0.0410    -0.0480 h4         1 6ZP       0.206000
     38 H11         -2.2440     2.2600    -2.1670 ha         1 6ZP       0.127500
     39 H12         -3.7110     4.2530    -2.0980 ha         1 6ZP       0.120000
     40 H13         -4.1120     5.4170     0.0470 ha         1 6ZP       0.118000
     41 H14         -3.0580     4.5810     2.1230 ha         1 6ZP       0.120000
     42 H15         -1.6050     2.5800     2.0530 ha         1 6ZP       0.127500
@<TRIPOS>BOND
     1     1     2 3   
     2     2     3 1   
     3     3     4 ar  
     4     3     8 ar  
     5     4     5 ar  
     6     4    28 1   
     7     5     6 ar  
     8     5    29 1   
     9     6     7 ar  
    10     6    30 1   
    11     7     8 ar  
    12     7    31 1   
    13     8     9 1   
    14     9    10 1   
    15     9    12 2   
    16    10    11 2   
    17    10    21 1   
    18    12    13 1   
    19    12    32 1   
    20    13    14 1   
    21    13    20 2   
    22    14    15 ar  
    23    14    19 ar  
    24    15    16 ar  
    25    16    17 ar  
    26    16    33 1   
    27    17    18 ar  
    28    17    34 1   
    29    18    19 ar  
    30    18    35 1   
    31    19    36 1   
    32    20    21 1   
    33    20    37 1   
    34    21    22 1   
    35    22    23 ar  
    36    22    27 ar  
    37    23    24 ar  
    38    23    38 1   
    39    24    25 ar  
    40    24    39 1   
    41    25    26 ar  
    42    25    40 1   
    43    26    27 ar  
    44    26    41 1   
    45    27    42 1   
@<TRIPOS>SUBSTRUCTURE
     1 6ZP         1 TEMP              0 ****  ****    0 ROOT
