@<TRIPOS>MOLECULE
6ZP
   42    45     1     0     0
SMALL
No Charge or Current Charge


@<TRIPOS>ATOM
      1 N01          2.3760     0.6950     3.2380 n1         1 6ZP      -0.461000
      2 C02          2.8530     0.5190     2.1860 cg         1 6ZP       0.328000
      3 C03          3.4510     0.2960     0.8950 ca         1 6ZP      -0.011000
      4 C04          4.8560     0.2740     0.7860 ca         1 6ZP      -0.076000
      5 C05          5.4680     0.0450    -0.4580 ca         1 6ZP      -0.113000
      6 C06          4.6780    -0.1650    -1.6000 ca         1 6ZP      -0.090000
      7 C07          3.2770    -0.1450    -1.4970 ca         1 6ZP      -0.085000
      8 C08          2.6530     0.0860    -0.2560 ca         1 6ZP       0.017200
      9 C09          1.1900     0.1010    -0.1900 cc         1 6ZP      -0.195400
     10 C10          0.4310     1.3520    -0.0030 c          1 6ZP       0.565200
     11 O11          0.9900     2.4410     0.0590 o          1 6ZP      -0.529000
     12 C12          0.5930    -1.1310    -0.3450 cd         1 6ZP      -0.032000
     13 C13         -0.8490    -1.2410    -0.3060 cd         1 6ZP      -0.263800
     14 C14         -1.5290    -2.5570    -0.4650 ca         1 6ZP       0.434800
     15 N15         -0.7150    -3.6330    -0.5980 nb         1 6ZP      -0.679000
     16 C16         -1.2700    -4.8570    -0.7410 ca         1 6ZP       0.350900
     17 C17         -2.6560    -5.0690    -0.7590 ca         1 6ZP      -0.169000
     18 C18         -3.5120    -3.9680    -0.6240 ca         1 6ZP      -0.066000
     19 C19         -2.9370    -2.6960    -0.4750 ca         1 6ZP      -0.164000
     20 C20         -1.5600    -0.0660    -0.0910 cc         1 6ZP       0.001600
     21 N21         -0.9750     1.2010     0.0630 n          1 6ZP      -0.192200
     22 C22         -1.8440     2.3610     0.1450 ca         1 6ZP       0.012600
     23 C23         -3.0640     2.4130    -0.5720 ca         1 6ZP      -0.090000
     24 C24         -3.9510     3.4910    -0.4090 ca         1 6ZP      -0.104500
     25 C25         -3.6540     4.5170     0.5010 ca         1 6ZP      -0.098000
     26 C26         -2.4740     4.4550     1.2570 ca         1 6ZP      -0.104500
     27 C27         -1.5860     3.3780     1.0930 ca         1 6ZP      -0.090000
     28 H1           5.4770     0.4330     1.6660 ha         1 6ZP       0.124000
     29 H2           6.5530     0.0290    -0.5370 ha         1 6ZP       0.118000
     30 H3           5.1510    -0.3430    -2.5630 ha         1 6ZP       0.117000
     31 H4           2.6720    -0.3050    -2.3870 ha         1 6ZP       0.126000
     32 H5           1.2160    -2.0120    -0.4930 ha         1 6ZP       0.215000
     33 H6          -0.5800    -5.6940    -0.8440 h4         1 6ZP       0.021100
     34 H7          -3.0530    -6.0740    -0.8770 ha         1 6ZP       0.126000
     35 H8          -4.5930    -4.0960    -0.6350 ha         1 6ZP       0.119000
     36 H9          -3.5940    -1.8400    -0.3760 ha         1 6ZP       0.119000
     37 H10         -2.6350    -0.0150     0.0210 h4         1 6ZP       0.206000
     38 H11         -3.3150     1.6380    -1.2930 ha         1 6ZP       0.127500
     39 H12         -4.8710     3.5290    -0.9880 ha         1 6ZP       0.120000
     40 H13         -4.3430     5.3500     0.6290 ha         1 6ZP       0.118000
     41 H14         -2.2530     5.2360     1.9820 ha         1 6ZP       0.120000
     42 H15         -0.7000     3.3330     1.7210 ha         1 6ZP       0.127500
@<TRIPOS>BOND
     1     1     2 3   
     2     2     3 1   
     3     3     4 ar  
     4     3     8 ar  
     5     4     5 ar  
     6     4    28 1   
     7     5     6 ar  
     8     5    29 1   
     9     6     7 ar  
    10     6    30 1   
    11     7     8 ar  
    12     7    31 1   
    13     8     9 1   
    14     9    10 1   
    15     9    12 2   
    16    10    11 2   
    17    10    21 1   
    18    12    13 1   
    19    12    32 1   
    20    13    14 1   
    21    13    20 2   
    22    14    15 ar  
    23    14    19 ar  
    24    15    16 ar  
    25    16    17 ar  
    26    16    33 1   
    27    17    18 ar  
    28    17    34 1   
    29    18    19 ar  
    30    18    35 1   
    31    19    36 1   
    32    20    21 1   
    33    20    37 1   
    34    21    22 1   
    35    22    23 ar  
    36    22    27 ar  
    37    23    24 ar  
    38    23    38 1   
    39    24    25 ar  
    40    24    39 1   
    41    25    26 ar  
    42    25    40 1   
    43    26    27 ar  
    44    26    41 1   
    45    27    42 1   
@<TRIPOS>SUBSTRUCTURE
     1 6ZP         1 TEMP              0 ****  ****    0 ROOT
