@<TRIPOS>MOLECULE
6ZQ
   59    62     1     0     0
SMALL
bcc


@<TRIPOS>ATOM
      1 CL1         -0.9720     1.9940    -1.9280 cl         1 6ZQ      -0.083400
      2 CAC         -1.0190     2.6430    -0.3300 ca         1 6ZQ       0.038400
      3 CAD         -0.4430     3.8740    -0.0660 ca         1 6ZQ      -0.116000
      4 CAE         -0.4810     4.3780     1.2270 ca         1 6ZQ      -0.109000
      5 CAN         -1.0890     3.6560     2.2450 ca         1 6ZQ      -0.123000
      6 CAM         -1.6620     2.4240     1.9720 ca         1 6ZQ      -0.102000
      7 CAL         -1.6220     1.9100     0.6860 ca         1 6ZQ       0.027600
      8 NAK         -2.2040     0.6420     0.4030 n          1 6ZQ      -0.331500
      9 CAJ         -3.5370     0.6490     0.0050 c          1 6ZQ       0.725100
     10 OAA         -4.1570     1.6890    -0.0750 o          1 6ZQ      -0.587500
     11 CAI         -4.0740    -0.6720    -0.2880 ca         1 6ZQ      -0.178600
     12 CAH         -5.4070    -0.8130    -0.6850 ca         1 6ZQ      -0.101000
     13 CAG         -5.8700    -2.0740    -0.9540 ca         1 6ZQ       0.110900
     14 FAF         -7.1450    -2.2370    -1.3350 f          1 6ZQ      -0.139900
     15 CAO         -5.0610    -3.2030    -0.8460 ca         1 6ZQ      -0.133000
     16 CAP         -3.7500    -3.0540    -0.4560 ca         1 6ZQ      -0.099000
     17 CAQ         -3.2340    -1.7830    -0.1710 ca         1 6ZQ       0.180400
     18 NAR         -1.9210    -1.6710     0.2150 nc         1 6ZQ      -0.635100
     19 CAS         -1.4470    -0.5130     0.4830 cd         1 6ZQ       0.529900
     20 CAT         -0.0220    -0.3610     0.9210 c3         1 6ZQ      -0.116700
     21 CAU          0.7520    -1.6740     0.9500 c3         1 6ZQ      -0.110700
     22 CAV          2.1600    -1.4320     1.4180 ca         1 6ZQ       0.410600
     23 NAY          2.9320    -0.6900     0.6300 nb         1 6ZQ      -0.657000
     24 CAW          2.6130    -1.9390     2.6320 ca         1 6ZQ      -0.243300
     25 CAX          3.9080    -1.6550     3.0310 ca         1 6ZQ      -0.091000
     26 CBA          4.7050    -0.8750     2.2080 ca         1 6ZQ      -0.246300
     27 CAZ          4.1760    -0.4130     1.0080 ca         1 6ZQ       0.420600
     28 CBB          4.9980     0.4350     0.0730 c3         1 6ZQ       0.122500
     29 NBE          5.2930    -0.2480    -1.1730 n3         1 6ZQ      -0.710600
     30 CBD          5.7910     0.6880    -2.1690 c3         1 6ZQ       0.169300
     31 CBC          5.9790     0.0700    -3.5440 c3         1 6ZQ      -0.109100
     32 CBF          6.1260    -1.4290    -0.9950 c3         1 6ZQ       0.169300
     33 CBG          7.5690    -1.1860    -0.5540 c3         1 6ZQ      -0.109100
     34 H1           0.0300     4.4340    -0.8610 ha         1 6ZQ       0.152000
     35 H2          -0.0320     5.3390     1.4350 ha         1 6ZQ       0.139000
     36 H3          -1.1180     4.0510     3.2510 ha         1 6ZQ       0.141000
     37 H4          -2.1400     1.8510     2.7560 ha         1 6ZQ       0.146000
     38 H5          -6.0540     0.0490    -0.7740 ha         1 6ZQ       0.172000
     39 H6          -5.4650    -4.1820    -1.0680 ha         1 6ZQ       0.153000
     40 H7          -3.1030    -3.9170    -0.3640 ha         1 6ZQ       0.155000
     41 H8           0.4920     0.3450     0.2640 hc         1 6ZQ       0.076700
     42 H9          -0.0100     0.0990     1.9140 hc         1 6ZQ       0.076700
     43 H10          0.2580    -2.3900     1.6060 hc         1 6ZQ       0.071200
     44 H11          0.7700    -2.1130    -0.0500 hc         1 6ZQ       0.071200
     45 H12          1.9590    -2.5420     3.2490 ha         1 6ZQ       0.141000
     46 H13          4.2900    -2.0350     3.9700 ha         1 6ZQ       0.137000
     47 H14          5.7230    -0.6320     2.4830 ha         1 6ZQ       0.140000
     48 H15          4.4200     1.3320    -0.1670 h1         1 6ZQ       0.041700
     49 H16          5.8990     0.7830     0.6020 h1         1 6ZQ       0.041700
     50 H18          5.0570     1.4940    -2.2470 h1         1 6ZQ       0.039700
     51 H19          6.7330     1.1690    -1.8580 h1         1 6ZQ       0.039700
     52 H20          6.8060    -0.6410    -3.5780 hc         1 6ZQ       0.036033
     53 H21          5.0740    -0.4450    -3.8690 hc         1 6ZQ       0.036033
     54 H22          6.1990     0.8530    -4.2690 hc         1 6ZQ       0.036033
     55 H23          5.6360    -2.0790    -0.2660 h1         1 6ZQ       0.039700
     56 H24          6.1270    -1.9950    -1.9290 h1         1 6ZQ       0.039700
     57 H25          8.0690    -2.1390    -0.3810 hc         1 6ZQ       0.036033
     58 H26          8.1440    -0.6480    -1.3090 hc         1 6ZQ       0.036033
     59 H27          7.6250    -0.6150     0.3740 hc         1 6ZQ       0.036033
@<TRIPOS>BOND
     1     1     2 1   
     2     2     3 ar  
     3     2     7 ar  
     4     3     4 ar  
     5     3    34 1   
     6     4     5 ar  
     7     4    35 1   
     8     5     6 ar  
     9     5    36 1   
    10     6     7 ar  
    11     6    37 1   
    12     7     8 1   
    13     8     9 1   
    14     8    19 1   
    15     9    10 2   
    16     9    11 1   
    17    11    12 ar  
    18    11    17 ar  
    19    12    13 ar  
    20    12    38 1   
    21    13    14 1   
    22    13    15 ar  
    23    15    16 ar  
    24    15    39 1   
    25    16    17 ar  
    26    16    40 1   
    27    17    18 1   
    28    18    19 2   
    29    19    20 1   
    30    20    21 1   
    31    20    41 1   
    32    20    42 1   
    33    21    22 1   
    34    21    43 1   
    35    21    44 1   
    36    22    23 ar  
    37    22    24 ar  
    38    23    27 ar  
    39    24    25 ar  
    40    24    45 1   
    41    25    26 ar  
    42    25    46 1   
    43    26    27 ar  
    44    26    47 1   
    45    27    28 1   
    46    28    29 1   
    47    28    48 1   
    48    28    49 1   
    49    29    30 1   
    50    29    32 1   
    51    30    31 1   
    52    30    50 1   
    53    30    51 1   
    54    31    52 1   
    55    31    53 1   
    56    31    54 1   
    57    32    33 1   
    58    32    55 1   
    59    32    56 1   
    60    33    57 1   
    61    33    58 1   
    62    33    59 1   
@<TRIPOS>SUBSTRUCTURE
     1 6ZQ         1 TEMP              0 ****  ****    0 ROOT
