@<TRIPOS>MOLECULE
6ZQ
   59    62     1     0     0
SMALL
No Charge or Current Charge


@<TRIPOS>ATOM
      1 Cl1         -1.5680     2.6670    -1.5070 cl         1 6ZQ      -0.175000
      2 CAC         -1.5320     2.9410     0.2350 ca         1 6ZQ       0.130000
      3 CAD         -0.9740     4.1320     0.7300 ca         1 6ZQ      -0.098000
      4 CAE         -0.9340     4.3700     2.1140 ca         1 6ZQ      -0.091000
      5 CAN         -1.4570     3.4170     3.0060 ca         1 6ZQ      -0.105000
      6 CAM         -2.0160     2.2250     2.5140 ca         1 6ZQ      -0.084000
      7 CAL         -2.0460     1.9750     1.1280 ca         1 6ZQ       0.027600
      8 NAK         -2.6300     0.7560     0.6400 n          1 6ZQ      -0.264500
      9 CAJ         -3.9620     0.6350     0.2820 c          1 6ZQ       0.582600
     10 OAA         -4.7520     1.5660     0.3770 o          1 6ZQ      -0.512000
     11 CAI         -4.3560    -0.7010    -0.2190 ca         1 6ZQ      -0.178600
     12 CAH         -5.6870    -0.9670    -0.6150 ca         1 6ZQ      -0.083000
     13 CAG         -6.0370    -2.2400    -1.0850 ca         1 6ZQ       0.146000
     14 FAF         -7.3080    -2.4950    -1.4640 f          1 6ZQ      -0.175000
     15 CAO         -5.0690    -3.2490    -1.1620 ca         1 6ZQ      -0.115000
     16 CAP         -3.7470    -2.9770    -0.7670 ca         1 6ZQ      -0.081000
     17 CAQ         -3.3730    -1.7040    -0.2910 ca         1 6ZQ       0.180400
     18 NAR         -2.0330    -1.5260     0.0770 nc         1 6ZQ      -0.635100
     19 CAS         -1.7180    -0.3000     0.5210 cd         1 6ZQ       0.529900
     20 CAT         -0.2470    -0.1280     0.9130 c3         1 6ZQ      -0.116700
     21 CAU          0.7030    -1.3440     0.7010 c3         1 6ZQ      -0.110700
     22 CAV          2.1320    -1.0400     1.1220 ca         1 6ZQ       0.345300
     23 NAY          2.9400    -0.5160     0.1740 nb         1 6ZQ      -0.657000
     24 CAW          2.5630    -1.2770     2.4400 ca         1 6ZQ      -0.160000
     25 CAX          3.8840    -0.9670     2.7960 ca         1 6ZQ      -0.073000
     26 CBA          4.7240    -0.4280     1.8100 ca         1 6ZQ      -0.163000
     27 CAZ          4.2220    -0.2210     0.5090 ca         1 6ZQ       0.355300
     28 CBB          5.1200     0.3780    -0.5920 c3         1 6ZQ       0.122500
     29 NBE          5.7560    -0.5980    -1.5360 n3         1 6ZQ      -0.710600
     30 CBD          6.3980     0.0770    -2.6950 c3         1 6ZQ       0.169300
     31 CBC          6.8500    -0.8690    -3.8260 c3         1 6ZQ      -0.109100
     32 CBF          6.5910    -1.6380    -0.8670 c3         1 6ZQ       0.169300
     33 CBG          7.8980    -1.1250    -0.2220 c3         1 6ZQ      -0.109100
     34 H1          -0.5740     4.8700     0.0390 ha         1 6ZQ       0.134000
     35 H2          -0.5020     5.2930     2.4960 ha         1 6ZQ       0.121000
     36 H3          -1.4310     3.6040     4.0770 ha         1 6ZQ       0.123000
     37 H4          -2.4230     1.4930     3.2080 ha         1 6ZQ       0.128000
     38 H5          -6.4500    -0.1930    -0.5610 ha         1 6ZQ       0.154000
     39 H6          -5.3400    -4.2370    -1.5270 ha         1 6ZQ       0.135000
     40 H7          -2.9990    -3.7630    -0.8290 ha         1 6ZQ       0.137000
     41 H8           0.1760     0.7120     0.3500 hc         1 6ZQ       0.076700
     42 H9          -0.1930     0.1520     1.9720 hc         1 6ZQ       0.076700
     43 H10          0.3310    -2.2040     1.2710 hc         1 6ZQ       0.071200
     44 H11          0.6840    -1.6430    -0.3550 hc         1 6ZQ       0.071200
     45 H12          1.8780    -1.6930     3.1750 ha         1 6ZQ       0.123000
     46 H13          4.2460    -1.1380     3.8090 ha         1 6ZQ       0.119000
     47 H14          5.7520    -0.1720     2.0480 ha         1 6ZQ       0.122000
     48 H15          4.5000     1.0800    -1.1660 h1         1 6ZQ       0.041700
     49 H16          5.8950     0.9880    -0.1100 h1         1 6ZQ       0.041700
     50 H18          5.6850     0.7870    -3.1350 h1         1 6ZQ       0.039700
     51 H19          7.2630     0.6690    -2.3630 h1         1 6ZQ       0.039700
     52 H20          7.6820    -1.5060    -3.5050 hc         1 6ZQ       0.036033
     53 H21          6.0210    -1.5080    -4.1510 hc         1 6ZQ       0.036033
     54 H22          7.1910    -0.2850    -4.6890 hc         1 6ZQ       0.036033
     55 H23          6.0020    -2.1370    -0.0860 h1         1 6ZQ       0.039700
     56 H24          6.8530    -2.4250    -1.5860 h1         1 6ZQ       0.039700
     57 H25          8.4190    -1.9540     0.2720 hc         1 6ZQ       0.036033
     58 H26          8.5730    -0.7070    -0.9770 hc         1 6ZQ       0.036033
     59 H27          7.6980    -0.3570     0.5320 hc         1 6ZQ       0.036033
@<TRIPOS>BOND
     1     1     2 1   
     2     2     3 ar  
     3     2     7 ar  
     4     3     4 ar  
     5     3    34 1   
     6     4     5 ar  
     7     4    35 1   
     8     5     6 ar  
     9     5    36 1   
    10     6     7 ar  
    11     6    37 1   
    12     7     8 1   
    13     8     9 1   
    14     8    19 1   
    15     9    10 2   
    16     9    11 1   
    17    11    12 ar  
    18    11    17 ar  
    19    12    13 ar  
    20    12    38 1   
    21    13    14 1   
    22    13    15 ar  
    23    15    16 ar  
    24    15    39 1   
    25    16    17 ar  
    26    16    40 1   
    27    17    18 1   
    28    18    19 2   
    29    19    20 1   
    30    20    21 1   
    31    20    41 1   
    32    20    42 1   
    33    21    22 1   
    34    21    43 1   
    35    21    44 1   
    36    22    23 ar  
    37    22    24 ar  
    38    23    27 ar  
    39    24    25 ar  
    40    24    45 1   
    41    25    26 ar  
    42    25    46 1   
    43    26    27 ar  
    44    26    47 1   
    45    27    28 1   
    46    28    29 1   
    47    28    48 1   
    48    28    49 1   
    49    29    30 1   
    50    29    32 1   
    51    30    31 1   
    52    30    50 1   
    53    30    51 1   
    54    31    52 1   
    55    31    53 1   
    56    31    54 1   
    57    32    33 1   
    58    32    55 1   
    59    32    56 1   
    60    33    57 1   
    61    33    58 1   
    62    33    59 1   
@<TRIPOS>SUBSTRUCTURE
     1 6ZQ         1 TEMP              0 ****  ****    0 ROOT
