@<TRIPOS>MOLECULE
6ZR
   50    52     1     0     0
SMALL
bcc


@<TRIPOS>ATOM
      1 CAO          4.9430    -2.1880    -2.5140 c3         1 6ZR       0.132700
      2 OAN          4.9320    -1.8320    -1.1460 os         1 6ZR      -0.342900
      3 CAM          3.9460    -1.0260    -0.6970 ca         1 6ZR       0.055100
      4 CAK          4.0200    -0.7060     0.6690 ca         1 6ZR       0.118100
      5 CAJ          3.0530     0.1060     1.2330 ca         1 6ZR      -0.137000
      6 OAL          5.0130    -1.1800     1.4480 oh         1 6ZR      -0.495100
      7 CAP          2.9050    -0.5200    -1.4590 ca         1 6ZR      -0.173000
      8 CAQ          1.9450     0.3050    -0.8810 ca         1 6ZR      -0.104000
      9 CAI          2.0120     0.6240     0.4650 ca         1 6ZR      -0.100300
     10 CAH          1.0260     1.5370     1.1290 cy         1 6ZR       0.157000
     11 CAF          1.2260     3.0750     0.9450 cy         1 6ZR      -0.160700
     12 CAG          2.3990     3.5840     0.1360 c3         1 6ZR      -0.072100
     13 CAD         -0.1280     3.0440     0.2600 c          1 6ZR       0.718500
     14 OAE         -0.8490     3.8590    -0.2630 o          1 6ZR      -0.577500
     15 NAC         -0.2620     1.6990     0.4560 nj         1 6ZR      -0.399000
     16 CAB         -1.2890     0.7840     0.2520 ca         1 6ZR       0.154600
     17 CAR         -2.4920     1.1910    -0.3210 ca         1 6ZR      -0.292000
     18 CAA         -1.0860    -0.5370     0.6370 ca         1 6ZR      -0.292000
     19 CAY         -2.1040    -1.4680     0.4460 ca         1 6ZR       0.184100
     20 OAZ         -2.0030    -2.7650     0.7780 os         1 6ZR      -0.300400
     21 CBA         -0.7780    -3.2350     1.3060 c3         1 6ZR       0.121700
     22 CAV         -3.3160    -1.0820    -0.1290 ca         1 6ZR      -0.007900
     23 OAW         -4.3010    -1.9960    -0.3380 os         1 6ZR      -0.300900
     24 CAX         -5.2020    -2.1390     0.7520 c3         1 6ZR       0.123700
     25 CAS         -3.5040     0.2530    -0.5000 ca         1 6ZR       0.184100
     26 OAT         -4.7030     0.5390    -1.0310 os         1 6ZR      -0.300400
     27 CAU         -4.9760     1.8750    -1.4060 c3         1 6ZR       0.121700
     28 H1           4.0480    -2.7510    -2.7920 h1         1 6ZR       0.044367
     29 H2           5.0250    -1.3110    -3.1600 h1         1 6ZR       0.044367
     30 H3           5.8150    -2.8200    -2.6630 h1         1 6ZR       0.044367
     31 H4           3.1190     0.3370     2.2910 ha         1 6ZR       0.148000
     32 H5           5.6140    -1.7250     0.9250 ho         1 6ZR       0.444000
     33 H6           2.8240    -0.7590    -2.5110 ha         1 6ZR       0.140000
     34 H7           1.1440     0.6890    -1.5010 ha         1 6ZR       0.148000
     35 H8           0.9030     1.2580     2.1790 h1         1 6ZR       0.072700
     36 H9           1.1680     3.5980     1.9030 hc         1 6ZR       0.086700
     37 H10          2.4620     3.1120    -0.8440 hc         1 6ZR       0.049367
     38 H11          2.3100     4.6600    -0.0110 hc         1 6ZR       0.049367
     39 H12          3.3350     3.3970     0.6620 hc         1 6ZR       0.049367
     40 H13         -2.6300     2.2220    -0.6080 ha         1 6ZR       0.155500
     41 H14         -0.1400    -0.8330     1.0670 ha         1 6ZR       0.155500
     42 H15         -0.9070    -4.3000     1.4820 h1         1 6ZR       0.043033
     43 H16          0.0480    -3.0910     0.6050 h1         1 6ZR       0.043033
     44 H17         -0.5270    -2.7520     2.2540 h1         1 6ZR       0.043033
     45 H18         -5.9530    -2.8690     0.4560 h1         1 6ZR       0.031700
     46 H19         -4.6960    -2.5020     1.6510 h1         1 6ZR       0.031700
     47 H20         -5.7040    -1.1980     0.9890 h1         1 6ZR       0.031700
     48 H21         -4.3110     2.2200    -2.2020 h1         1 6ZR       0.043033
     49 H22         -5.9980     1.8880    -1.7750 h1         1 6ZR       0.043033
     50 H23         -4.8980     2.5600    -0.5590 h1         1 6ZR       0.043033
@<TRIPOS>BOND
     1     1     2 1   
     2     1    28 1   
     3     1    29 1   
     4     1    30 1   
     5     2     3 1   
     6     3     4 ar  
     7     3     7 ar  
     8     4     5 ar  
     9     4     6 1   
    10     5     9 ar  
    11     5    31 1   
    12     6    32 1   
    13     7     8 ar  
    14     7    33 1   
    15     8     9 ar  
    16     8    34 1   
    17     9    10 1   
    18    10    11 1   
    19    10    15 1   
    20    10    35 1   
    21    11    12 1   
    22    11    13 1   
    23    11    36 1   
    24    12    37 1   
    25    12    38 1   
    26    12    39 1   
    27    13    14 2   
    28    13    15 1   
    29    15    16 1   
    30    16    17 ar  
    31    16    18 ar  
    32    17    25 ar  
    33    17    40 1   
    34    18    19 ar  
    35    18    41 1   
    36    19    20 1   
    37    19    22 ar  
    38    20    21 1   
    39    21    42 1   
    40    21    43 1   
    41    21    44 1   
    42    22    23 1   
    43    22    25 ar  
    44    23    24 1   
    45    24    45 1   
    46    24    46 1   
    47    24    47 1   
    48    25    26 1   
    49    26    27 1   
    50    27    48 1   
    51    27    49 1   
    52    27    50 1   
@<TRIPOS>SUBSTRUCTURE
     1 6ZR         1 TEMP              0 ****  ****    0 ROOT
