@<TRIPOS>MOLECULE
6ZR
   50    52     1     0     0
SMALL
No Charge or Current Charge


@<TRIPOS>ATOM
      1 CAO          4.5600    -2.5260    -2.5490 c3         1 6ZR       0.155900
      2 OAN          4.6490    -2.0710    -1.1860 os         1 6ZR      -0.366100
      3 CAM          3.7660    -1.1450    -0.6560 ca         1 6ZR       0.055100
      4 CAK          3.9310    -0.7600     0.6900 ca         1 6ZR       0.118100
      5 CAJ          3.0620     0.1730     1.2760 ca         1 6ZR      -0.119000
      6 OAL          4.9440    -1.3020     1.4270 oh         1 6ZR      -0.534100
      7 CAP          2.7160    -0.5800    -1.4130 ca         1 6ZR      -0.155000
      8 CAQ          1.8470     0.3560    -0.8230 ca         1 6ZR      -0.086000
      9 CAI          2.0130     0.7380     0.5250 ca         1 6ZR      -0.100300
     10 CAH          1.0740     1.7500     1.1870 cy         1 6ZR       0.157000
     11 CAF          1.3510     3.2670     0.9340 cy         1 6ZR      -0.160700
     12 CAG          2.5190     3.6990     0.0250 c3         1 6ZR      -0.072100
     13 CAD         -0.0740     3.2930     0.3200 c          1 6ZR       0.576000
     14 OAE         -0.7660     4.1570    -0.2010 o          1 6ZR      -0.502000
     15 NAC         -0.2760     1.9310     0.6030 nj         1 6ZR      -0.239400
     16 CAB         -1.3320     1.0060     0.4150 ca         1 6ZR       0.062000
     17 CAR         -2.5130     1.3920    -0.2300 ca         1 6ZR      -0.274000
     18 CAA         -1.1990    -0.3140     0.8710 ca         1 6ZR      -0.274000
     19 CAY         -2.2290    -1.2630     0.6850 ca         1 6ZR       0.184100
     20 OAZ         -2.0630    -2.5620     1.1360 os         1 6ZR      -0.323600
     21 CBA         -0.8570    -3.0310     1.7650 c3         1 6ZR       0.144900
     22 CAV         -3.4340    -0.8670     0.0290 ca         1 6ZR      -0.007900
     23 OAW         -4.5240    -1.7090    -0.2110 os         1 6ZR      -0.324100
     24 CAX         -4.6000    -3.0940     0.1700 c3         1 6ZR       0.146900
     25 CAS         -3.5600     0.4680    -0.4240 ca         1 6ZR       0.184100
     26 OAT         -4.7350     0.8360    -1.0600 os         1 6ZR      -0.323600
     27 CAU         -4.9670     2.1650    -1.5600 c3         1 6ZR       0.144900
     28 H1           3.5930    -3.0120    -2.7350 h1         1 6ZR       0.044367
     29 H2           4.6740    -1.6880    -3.2490 h1         1 6ZR       0.044367
     30 H3           5.3520    -3.2550    -2.7600 h1         1 6ZR       0.044367
     31 H4           3.2050     0.4580     2.3150 ha         1 6ZR       0.130000
     32 H5           5.4210    -1.9200     0.8300 ho         1 6ZR       0.483000
     33 H6           2.5580    -0.8520    -2.4530 ha         1 6ZR       0.122000
     34 H7           1.0440     0.7810    -1.4210 ha         1 6ZR       0.130000
     35 H8           0.9970     1.5140     2.2550 h1         1 6ZR       0.072700
     36 H9           1.3660     3.8690     1.8480 hc         1 6ZR       0.086700
     37 H10          2.4830     3.1900    -0.9460 hc         1 6ZR       0.049367
     38 H11          2.4860     4.7780    -0.1670 hc         1 6ZR       0.049367
     39 H12          3.4840     3.4700     0.4910 hc         1 6ZR       0.049367
     40 H13         -2.6080     2.4130    -0.5810 ha         1 6ZR       0.137500
     41 H14         -0.2790    -0.5940     1.3710 ha         1 6ZR       0.137500
     42 H15         -0.9520    -4.0930     2.0220 h1         1 6ZR       0.043033
     43 H16          0.0030    -2.9200     1.0920 h1         1 6ZR       0.043033
     44 H17         -0.6570    -2.4760     2.6910 h1         1 6ZR       0.043033
     45 H18         -5.5650    -3.5150    -0.1350 h1         1 6ZR       0.031700
     46 H19         -3.8100    -3.6790    -0.3180 h1         1 6ZR       0.031700
     47 H20         -4.5150    -3.2070     1.2580 h1         1 6ZR       0.031700
     48 H21         -4.2210     2.4330    -2.3180 h1         1 6ZR       0.043033
     49 H22         -5.9600     2.2280    -2.0230 h1         1 6ZR       0.043033
     50 H23         -4.9250     2.9000    -0.7460 h1         1 6ZR       0.043033
@<TRIPOS>BOND
     1     1     2 1   
     2     1    28 1   
     3     1    29 1   
     4     1    30 1   
     5     2     3 1   
     6     3     4 ar  
     7     3     7 ar  
     8     4     5 ar  
     9     4     6 1   
    10     5     9 ar  
    11     5    31 1   
    12     6    32 1   
    13     7     8 ar  
    14     7    33 1   
    15     8     9 ar  
    16     8    34 1   
    17     9    10 1   
    18    10    11 1   
    19    10    15 1   
    20    10    35 1   
    21    11    12 1   
    22    11    13 1   
    23    11    36 1   
    24    12    37 1   
    25    12    38 1   
    26    12    39 1   
    27    13    14 2   
    28    13    15 1   
    29    15    16 1   
    30    16    17 ar  
    31    16    18 ar  
    32    17    25 ar  
    33    17    40 1   
    34    18    19 ar  
    35    18    41 1   
    36    19    20 1   
    37    19    22 ar  
    38    20    21 1   
    39    21    42 1   
    40    21    43 1   
    41    21    44 1   
    42    22    23 1   
    43    22    25 ar  
    44    23    24 1   
    45    24    45 1   
    46    24    46 1   
    47    24    47 1   
    48    25    26 1   
    49    26    27 1   
    50    27    48 1   
    51    27    49 1   
    52    27    50 1   
@<TRIPOS>SUBSTRUCTURE
     1 6ZR         1 TEMP              0 ****  ****    0 ROOT
