@<TRIPOS>MOLECULE
6ZS
   18    17     1     0     0
SMALL
abcg2


@<TRIPOS>ATOM
      1 C2         -26.1380    44.7350     2.9650 c3         1 6ZS      -0.077100
      2 N          -25.0750    45.5710     6.5360 n8         1 6ZS      -1.004200
      3 CA         -26.0380    45.1020     5.5300 c3         1 6ZS       0.029200
      4 CB1        -27.2340    46.0450     5.5710 c3         1 6ZS      -0.050100
      5 C          -26.4390    43.6150     5.7690 c          1 6ZS       0.696000
      6 O          -27.6450    43.3070     5.6920 o          1 6ZS      -0.733500
      7 CB         -25.3270    45.1960     4.1690 c3         1 6ZS      -0.043400
      8 O1         -25.4890    42.8370     6.0070 o          1 6ZS      -0.733500
      9 H1         -25.5540    44.8370     2.0500 hc         1 6ZS       0.020033
     10 H2         -26.4340    43.6890     3.0440 hc         1 6ZS       0.020033
     11 H3         -27.0460    45.3250     2.8350 hc         1 6ZS       0.020033
     12 H7         -27.7160    46.0300     6.5510 hc         1 6ZS       0.014700
     13 H8         -26.9130    47.0710     5.3760 hc         1 6ZS       0.014700
     14 H9         -27.9930    45.7850     4.8360 hc         1 6ZS       0.014700
     15 H10        -24.4050    44.6080     4.2210 hc         1 6ZS       0.023700
     16 H11        -25.0170    46.2350     4.0210 hc         1 6ZS       0.023700
     17 H4         -25.5370    45.5950     7.4390 hn         1 6ZS       0.382000
     18 H5         -24.3630    44.8560     6.6320 hn         1 6ZS       0.382000
@<TRIPOS>BOND
     1     1     7 1   
     2     1     9 1   
     3     1    10 1   
     4     1    11 1   
     5     2     3 1   
     6     2    17 1   
     7     2    18 1   
     8     3     4 1   
     9     3     5 1   
    10     3     7 1   
    11     4    12 1   
    12     4    13 1   
    13     4    14 1   
    14     5     6 1   
    15     5     8 1   
    16     7    15 1   
    17     7    16 1   
@<TRIPOS>SUBSTRUCTURE
     1 6ZS         1 TEMP              0 ****  ****    0 ROOT
