@<TRIPOS>MOLECULE
6ZS
   18    17     1     0     0
SMALL
No Charge or Current Charge


@<TRIPOS>ATOM
      1 C2         -26.1310    44.7470     2.9150 c3         1 6ZS      -0.077100
      2 N          -25.0480    45.6030     6.5640 n8         1 6ZS      -1.004200
      3 CA         -26.0200    45.0960     5.5260 c3         1 6ZS       0.029200
      4 CB1        -27.2530    46.0470     5.5880 c3         1 6ZS      -0.050100
      5 C          -26.4590    43.5700     5.7620 c          1 6ZS       0.696000
      6 O          -27.6460    43.2690     5.7500 o          1 6ZS      -0.733500
      7 CB         -25.3070    45.2090     4.1390 c3         1 6ZS      -0.043400
      8 O1         -25.5890    42.7710     6.0880 o          1 6ZS      -0.733500
      9 H1         -25.5280    44.8310     2.0040 hc         1 6ZS       0.020033
     10 H2         -26.4410    43.7010     3.0160 hc         1 6ZS       0.020033
     11 H3         -27.0260    45.3660     2.7800 hc         1 6ZS       0.020033
     12 H7         -27.7220    46.0150     6.5790 hc         1 6ZS       0.014700
     13 H8         -26.9620    47.0860     5.3870 hc         1 6ZS       0.014700
     14 H9         -28.0160    45.7690     4.8520 hc         1 6ZS       0.014700
     15 H10        -24.3830    44.6170     4.1640 hc         1 6ZS       0.023700
     16 H11        -24.9980    46.2490     3.9710 hc         1 6ZS       0.023700
     17 H4         -25.5150    45.6050     7.4780 hn         1 6ZS       0.382000
     18 H5         -24.3200    44.8870     6.6820 hn         1 6ZS       0.382000
@<TRIPOS>BOND
     1     1     7 1   
     2     1     9 1   
     3     1    10 1   
     4     1    11 1   
     5     2     3 1   
     6     2    17 1   
     7     2    18 1   
     8     3     4 1   
     9     3     5 1   
    10     3     7 1   
    11     4    12 1   
    12     4    13 1   
    13     4    14 1   
    14     5     6 1   
    15     5     8 1   
    16     7    15 1   
    17     7    16 1   
@<TRIPOS>SUBSTRUCTURE
     1 6ZS         1 TEMP              0 ****  ****    0 ROOT
