@<TRIPOS>MOLECULE
6ZT
   75    79     1     0     0
SMALL
No Charge or Current Charge


@<TRIPOS>ATOM
      1 C2           4.6450     1.1630     2.3710 ca         1 6ZT       0.085000
      2 C3           3.2640     0.9480     2.2510 ca         1 6ZT      -0.048000
      3 C41         -7.2330     0.4740     0.9130 ca         1 6ZT      -0.056000
      4 C43         -6.6150     1.6280     0.4070 ca         1 6ZT      -0.148000
      5 C45         -5.2150     1.7380     0.4190 ca         1 6ZT      -0.051000
      6 C48         -4.7820    -2.6880     2.5140 c3         1 6ZT       0.145900
      7 C52         -2.7210    -0.3800    -1.4310 c3         1 6ZT       0.005600
      8 C58         -3.7380     0.4180    -2.2750 c3         1 6ZT      -0.086600
      9 C12          3.2640     2.8370    -2.2710 c3         1 6ZT       0.165600
     10 C15          2.1980     3.0930    -3.3730 c3         1 6ZT       0.166800
     11 C19          0.3920     4.4810    -4.3170 c3         1 6ZT       0.149100
     12 C23          0.3700     3.9830    -1.9160 c3         1 6ZT       0.149100
     13 C28          0.3840     0.5040    -0.1680 c5         1 6ZT       0.262300
     14 C30         -1.0420     0.6420     0.2670 cc         1 6ZT      -0.233300
     15 Cl1          5.4540     0.8370     3.8990 cl         1 6ZT      -0.199000
     16 C5           2.6000     1.1540     1.0210 ca         1 6ZT      -0.067000
     17 C6           3.3320     1.7310    -0.0510 ca         1 6ZT       0.147100
     18 C7           4.7240     1.9460     0.0760 ca         1 6ZT      -0.194000
     19 C9           5.3800     1.6470     1.2810 ca         1 6ZT      -0.061000
     20 O11          2.6570     2.0920    -1.1980 os         1 6ZT      -0.347100
     21 N18          1.2110     4.1870    -3.1200 n3         1 6ZT      -0.709600
     22 N27          1.1550     1.0730     0.9810 n          1 6ZT      -0.248400
     23 C31         -2.2890     0.3250    -0.1560 cd         1 6ZT      -0.073300
     24 N32         -3.0400     0.8200     0.9440 na         1 6ZT       0.232000
     25 N33         -2.3030     1.4130     1.9770 nd         1 6ZT      -0.415800
     26 C34         -1.0860     1.2530     1.4940 cc         1 6ZT       0.177500
     27 C35          0.2760     1.5600     1.9840 c          1 6ZT       0.515500
     28 O36          0.5970     2.1160     3.0290 o          1 6ZT      -0.502000
     29 C37         -4.4260     0.6860     0.9230 ca         1 6ZT      -0.044200
     30 C38         -5.0440    -0.4650     1.4590 ca         1 6ZT       0.165100
     31 C39         -6.4530    -0.5690     1.4420 ca         1 6ZT      -0.200000
     32 O47         -4.2440    -1.4630     1.9900 os         1 6ZT      -0.323100
     33 C54         -3.1730    -1.8340    -1.1860 c3         1 6ZT      -0.086600
     34 C62          0.6140    -1.0180    -0.2280 ca         1 6ZT      -0.095300
     35 C63          1.0270    -1.6560    -1.4290 ca         1 6ZT      -0.048300
     36 C64          1.2070    -3.0540    -1.4530 ca         1 6ZT      -0.112000
     37 C66          0.9840    -3.8240    -0.3040 ca         1 6ZT       0.130000
     38 C67          0.5810    -3.2060     0.8840 ca         1 6ZT      -0.113000
     39 C69          0.3990    -1.8150     0.9230 ca         1 6ZT      -0.072000
     40 Cl7          1.2110    -5.5670    -0.3560 cl         1 6ZT      -0.205000
     41 C72          1.2920    -0.8680    -2.7100 c3         1 6ZT      -0.050800
     42 H1           2.7150     0.5820     3.1140 ha         1 6ZT       0.143000
     43 H2          -8.3190     0.3900     0.9020 ha         1 6ZT       0.117000
     44 H3          -7.2200     2.4380     0.0070 ha         1 6ZT       0.124000
     45 H4          -4.7400     2.6360     0.0290 ha         1 6ZT       0.130000
     46 H5          -5.3370    -3.2330     1.7400 h1         1 6ZT       0.045700
     47 H6          -3.9720    -3.3360     2.8710 h1         1 6ZT       0.045700
     48 H7          -5.4550    -2.4890     3.3590 h1         1 6ZT       0.045700
     49 H8          -1.8230    -0.4550    -2.0560 hc         1 6ZT       0.063700
     50 H9          -3.4330     1.4680    -2.3590 hc         1 6ZT       0.039700
     51 H10         -3.8020     0.0010    -3.2870 hc         1 6ZT       0.039700
     52 H11         -4.7410     0.3760    -1.8380 hc         1 6ZT       0.039700
     53 H12          4.0870     2.2600    -2.7100 h1         1 6ZT       0.046700
     54 H13          3.6620     3.7960    -1.9140 h1         1 6ZT       0.046700
     55 H14          2.7530     3.3310    -4.2900 h1         1 6ZT       0.036200
     56 H15          1.6700     2.1500    -3.5680 h1         1 6ZT       0.036200
     57 H16         -0.2620     5.3440    -4.1390 h1         1 6ZT       0.033867
     58 H17          1.0320     4.7170    -5.1780 h1         1 6ZT       0.033867
     59 H18         -0.2370     3.6200    -4.5820 h1         1 6ZT       0.033867
     60 H19         -0.2080     3.0520    -1.9930 h1         1 6ZT       0.033867
     61 H20          0.9790     3.9430    -1.0040 h1         1 6ZT       0.033867
     62 H21         -0.3390     4.8130    -1.7950 h1         1 6ZT       0.033867
     63 H22          0.5490     1.0290    -1.1130 h1         1 6ZT       0.078700
     64 H23          5.3090     2.3570    -0.7410 ha         1 6ZT       0.122000
     65 H24          6.4490     1.8160     1.3790 ha         1 6ZT       0.128000
     66 H26         -6.9600    -1.4440     1.8370 ha         1 6ZT       0.124000
     67 H27         -4.1500    -1.8710    -0.6950 hc         1 6ZT       0.039700
     68 H28         -3.2570    -2.3730    -2.1370 hc         1 6ZT       0.039700
     69 H29         -2.4460    -2.3640    -0.5590 hc         1 6ZT       0.039700
     70 H30          1.5230    -3.5500    -2.3670 ha         1 6ZT       0.127000
     71 H31          0.4080    -3.8040     1.7760 ha         1 6ZT       0.131000
     72 H32          0.0820    -1.3590     1.8570 ha         1 6ZT       0.131000
     73 H33          2.1480    -0.1960    -2.5850 hc         1 6ZT       0.045033
     74 H34          1.5200    -1.5280    -3.5540 hc         1 6ZT       0.045033
     75 H35          0.4230    -0.2660    -3.0000 hc         1 6ZT       0.045033
@<TRIPOS>BOND
     1     1     2 ar  
     2     1    15 1   
     3     1    19 ar  
     4     2    16 ar  
     5     2    42 1   
     6     3     4 ar  
     7     3    31 ar  
     8     3    43 1   
     9     4     5 ar  
    10     4    44 1   
    11     5    29 ar  
    12     5    45 1   
    13     6    32 1   
    14     6    46 1   
    15     6    47 1   
    16     6    48 1   
    17     7     8 1   
    18     7    23 1   
    19     7    33 1   
    20     7    49 1   
    21     8    50 1   
    22     8    51 1   
    23     8    52 1   
    24     9    10 1   
    25     9    20 1   
    26     9    53 1   
    27     9    54 1   
    28    10    21 1   
    29    10    55 1   
    30    10    56 1   
    31    11    21 1   
    32    11    57 1   
    33    11    58 1   
    34    11    59 1   
    35    12    21 1   
    36    12    60 1   
    37    12    61 1   
    38    12    62 1   
    39    13    14 1   
    40    13    22 1   
    41    13    34 1   
    42    13    63 1   
    43    14    23 2   
    44    14    26 1   
    45    16    17 ar  
    46    16    22 1   
    47    17    18 ar  
    48    17    20 1   
    49    18    19 ar  
    50    18    64 1   
    51    19    65 1   
    52    22    27 1   
    53    23    24 1   
    54    24    25 1   
    55    24    29 1   
    56    25    26 2   
    57    26    27 1   
    58    27    28 2   
    59    29    30 ar  
    60    30    31 ar  
    61    30    32 1   
    62    31    66 1   
    63    33    67 1   
    64    33    68 1   
    65    33    69 1   
    66    34    35 ar  
    67    34    39 ar  
    68    35    36 ar  
    69    35    41 1   
    70    36    37 ar  
    71    36    70 1   
    72    37    38 ar  
    73    37    40 1   
    74    38    39 ar  
    75    38    71 1   
    76    39    72 1   
    77    41    73 1   
    78    41    74 1   
    79    41    75 1   
@<TRIPOS>SUBSTRUCTURE
     1 6ZT         1 TEMP              0 ****  ****    0 ROOT
