@<TRIPOS>MOLECULE
6ZT
   75    79     1     0     0
SMALL
abcg2


@<TRIPOS>ATOM
      1 C2           4.6380     0.5330     1.9110 ca         1 6ZT       0.085000
      2 C3           3.2630     0.3620     1.8720 ca         1 6ZT      -0.048000
      3 C41         -7.1760     0.8880     0.9990 ca         1 6ZT      -0.056000
      4 C43         -6.5480     1.8640     0.2410 ca         1 6ZT      -0.148000
      5 C45         -5.1650     1.8410     0.1240 ca         1 6ZT      -0.051000
      6 C48         -4.8430    -2.1230     2.7890 c3         1 6ZT       0.145900
      7 C52         -2.7310    -0.5650    -1.4960 c3         1 6ZT       0.005600
      8 C58         -3.3230     0.3630    -2.5590 c3         1 6ZT      -0.086600
      9 C12          2.8470     3.2220    -1.9710 c3         1 6ZT       0.165600
     10 C15          1.7960     3.2960    -3.0590 c3         1 6ZT       0.166800
     11 C19         -0.0010     4.4870    -4.0580 c3         1 6ZT       0.149100
     12 C23         -0.2620     3.7030    -1.8300 c3         1 6ZT       0.149100
     13 C28          0.4610     0.1750    -0.2310 c5         1 6ZT       0.262300
     14 C30         -0.9660     0.4280     0.1100 cc         1 6ZT      -0.233300
     15 CL1          5.5720    -0.3260     3.0920 cl         1 6ZT      -0.199000
     16 C5           2.5150     1.0460     0.9300 ca         1 6ZT      -0.067000
     17 C6           3.1420     1.9060     0.0150 ca         1 6ZT       0.147100
     18 C7           4.5220     2.0640     0.0660 ca         1 6ZT      -0.194000
     19 C9           5.2680     1.3780     1.0150 ca         1 6ZT      -0.061000
     20 O11          2.3270     2.5140    -0.8530 os         1 6ZT      -0.347100
     21 N18          0.6830     4.1920    -2.8150 n3         1 6ZT      -0.709600
     22 N27          1.1190     0.8930     0.8800 n          1 6ZT      -0.248400
     23 C31         -2.2530     0.1840    -0.2890 cd         1 6ZT      -0.073300
     24 N32         -3.0180     0.8300     0.6450 na         1 6ZT       0.232000
     25 N33         -2.3100     1.4480     1.5990 nd         1 6ZT      -0.415800
     26 C34         -1.0660     1.1980     1.2560 cc         1 6ZT       0.177500
     27 C35          0.2750     1.5280     1.7580 c          1 6ZT       0.515500
     28 O36          0.6130     2.2010     2.7090 o          1 6ZT      -0.502000
     29 C37         -4.4320     0.8500     0.7500 ca         1 6ZT      -0.044200
     30 C38         -5.0590    -0.1300     1.5300 ca         1 6ZT       0.165100
     31 C39         -6.4470    -0.1050     1.6420 ca         1 6ZT      -0.200000
     32 O47         -4.2560    -1.0330     2.1020 os         1 6ZT      -0.323100
     33 C54         -3.6670    -1.7340    -1.1930 c3         1 6ZT      -0.086600
     34 C62          0.8650    -1.2800    -0.2640 ca         1 6ZT      -0.095300
     35 C63          1.6590    -1.7930    -1.2940 ca         1 6ZT      -0.048300
     36 C64          2.0130    -3.1410    -1.2570 ca         1 6ZT      -0.112000
     37 C66          1.5930    -3.9490    -0.2160 ca         1 6ZT       0.130000
     38 C67          0.8120    -3.4480     0.8120 ca         1 6ZT      -0.113000
     39 C69          0.4550    -2.1120     0.7720 ca         1 6ZT      -0.072000
     40 CL7          2.0560    -5.6200    -0.1990 cl         1 6ZT      -0.205000
     41 C72          2.1500    -0.9440    -2.4330 c3         1 6ZT      -0.050800
     42 H1           2.7650    -0.3070     2.5610 ha         1 6ZT       0.143000
     43 H2          -8.2530     0.8920     1.1000 ha         1 6ZT       0.117000
     44 H3          -7.1220     2.6370    -0.2510 ha         1 6ZT       0.124000
     45 H4          -4.6450     2.5950    -0.4540 ha         1 6ZT       0.130000
     46 H5          -5.5010    -2.7040     2.1380 h1         1 6ZT       0.045700
     47 H6          -4.0220    -2.7560     3.1150 h1         1 6ZT       0.045700
     48 H7          -5.4060    -1.7980     3.6670 h1         1 6ZT       0.045700
     49 H8          -1.8160    -0.9930    -1.9180 hc         1 6ZT       0.063700
     50 H9          -2.6620     1.2030    -2.7740 hc         1 6ZT       0.039700
     51 H10         -3.4760    -0.1890    -3.4860 hc         1 6ZT       0.039700
     52 H11         -4.2890     0.7650    -2.2510 hc         1 6ZT       0.039700
     53 H12          3.7140     2.6960    -2.3800 h1         1 6ZT       0.046700
     54 H13          3.1680     4.2230    -1.6670 h1         1 6ZT       0.046700
     55 H14          2.3230     3.6600    -3.9450 h1         1 6ZT       0.036200
     56 H15          1.4630     2.2710    -3.3020 h1         1 6ZT       0.036200
     57 H16         -0.8050     5.2010    -3.8780 h1         1 6ZT       0.033867
     58 H17          0.6900     4.9370    -4.7730 h1         1 6ZT       0.033867
     59 H18         -0.4460     3.5990    -4.5330 h1         1 6ZT       0.033867
     60 H19         -0.6700     2.7080    -2.0780 h1         1 6ZT       0.033867
     61 H20          0.1860     3.6390    -0.8410 h1         1 6ZT       0.033867
     62 H21         -1.1030     4.3940    -1.7650 h1         1 6ZT       0.033867
     63 H22          0.7240     0.6590    -1.1730 h1         1 6ZT       0.078700
     64 H23          5.0360     2.7290    -0.6150 ha         1 6ZT       0.122000
     65 H24          6.3410     1.5130     1.0480 ha         1 6ZT       0.128000
     66 H26         -6.9720    -0.8470     2.2260 ha         1 6ZT       0.124000
     67 H27         -4.6550    -1.3970    -0.8820 hc         1 6ZT       0.039700
     68 H28         -3.7970    -2.3320    -2.0960 hc         1 6ZT       0.039700
     69 H29         -3.2640    -2.3830    -0.4160 hc         1 6ZT       0.039700
     70 H30          2.6210    -3.5560    -2.0510 ha         1 6ZT       0.127000
     71 H31          0.4840    -4.0830     1.6250 ha         1 6ZT       0.131000
     72 H32         -0.1620    -1.7120     1.5670 ha         1 6ZT       0.131000
     73 H33          2.8000    -0.1410    -2.0820 hc         1 6ZT       0.045033
     74 H34          2.7240    -1.5390    -3.1400 hc         1 6ZT       0.045033
     75 H35          1.3300    -0.4830    -2.9850 hc         1 6ZT       0.045033
@<TRIPOS>BOND
     1     1     2 ar  
     2     1    15 1   
     3     1    19 ar  
     4     2    16 ar  
     5     2    42 1   
     6     3     4 ar  
     7     3    31 ar  
     8     3    43 1   
     9     4     5 ar  
    10     4    44 1   
    11     5    29 ar  
    12     5    45 1   
    13     6    32 1   
    14     6    46 1   
    15     6    47 1   
    16     6    48 1   
    17     7     8 1   
    18     7    23 1   
    19     7    33 1   
    20     7    49 1   
    21     8    50 1   
    22     8    51 1   
    23     8    52 1   
    24     9    10 1   
    25     9    20 1   
    26     9    53 1   
    27     9    54 1   
    28    10    21 1   
    29    10    55 1   
    30    10    56 1   
    31    11    21 1   
    32    11    57 1   
    33    11    58 1   
    34    11    59 1   
    35    12    21 1   
    36    12    60 1   
    37    12    61 1   
    38    12    62 1   
    39    13    14 1   
    40    13    22 1   
    41    13    34 1   
    42    13    63 1   
    43    14    23 2   
    44    14    26 1   
    45    16    17 ar  
    46    16    22 1   
    47    17    18 ar  
    48    17    20 1   
    49    18    19 ar  
    50    18    64 1   
    51    19    65 1   
    52    22    27 1   
    53    23    24 1   
    54    24    25 1   
    55    24    29 1   
    56    25    26 2   
    57    26    27 1   
    58    27    28 2   
    59    29    30 ar  
    60    30    31 ar  
    61    30    32 1   
    62    31    66 1   
    63    33    67 1   
    64    33    68 1   
    65    33    69 1   
    66    34    35 ar  
    67    34    39 ar  
    68    35    36 ar  
    69    35    41 1   
    70    36    37 ar  
    71    36    70 1   
    72    37    38 ar  
    73    37    40 1   
    74    38    39 ar  
    75    38    71 1   
    76    39    72 1   
    77    41    73 1   
    78    41    74 1   
    79    41    75 1   
@<TRIPOS>SUBSTRUCTURE
     1 6ZT         1 TEMP              0 ****  ****    0 ROOT
