@<TRIPOS>MOLECULE
6ZU
   40    42     1     0     0
SMALL
abcg2


@<TRIPOS>ATOM
      1 C2          -0.6060    -0.0350     1.1620 ca         1 6ZU       0.179100
      2 C4          -1.0420     1.8330    -0.2620 ca         1 6ZU      -0.040000
      3 C5          -2.3910     1.5480    -0.2350 ca         1 6ZU      -0.132000
      4 C6          -2.8320     0.4570     0.5060 ca         1 6ZU       0.158100
      5 C8           1.5690    -0.6500     1.8950 c          1 6ZU       0.672300
      6 O7           0.2260    -0.8320     1.8610 os         1 6ZU      -0.331200
      7 C9           2.1240     0.4820     1.1640 cc         1 6ZU      -0.211400
      8 C18          3.6180     0.6620     1.2450 c3         1 6ZU       0.020100
      9 C19          4.3510     0.1800     0.0140 ca         1 6ZU      -0.080300
     10 C24          5.2680     1.0060    -0.6290 ca         1 6ZU      -0.106000
     11 C23          5.9580     0.5690    -1.7530 ca         1 6ZU      -0.108500
     12 C22          5.7380    -0.7060    -2.2530 ca         1 6ZU      -0.109000
     13 C21          4.8260    -1.5400    -1.6170 ca         1 6ZU      -0.108500
     14 C20          4.1410    -1.1010    -0.4940 ca         1 6ZU      -0.106000
     15 C10          1.3110     1.2980     0.4470 cd         1 6ZU       0.041600
     16 C16          1.8210     2.4560    -0.3460 c3         1 6ZU      -0.067900
     17 C3          -0.1170     1.0460     0.4340 ca         1 6ZU      -0.144800
     18 C1          -1.9570    -0.3450     1.2100 ca         1 6ZU      -0.153000
     19 O11         -4.1820     0.1870     0.5960 os         1 6ZU      -0.439800
     20 S12         -4.9250    -0.6310    -0.6110 s6         1 6ZU       1.323700
     21 O13         -6.3250    -0.4680    -0.3030 o          1 6ZU      -0.517000
     22 O14         -4.3960    -0.1770    -1.8770 o          1 6ZU      -0.517000
     23 C15         -4.4180    -2.2990    -0.3130 c3         1 6ZU      -0.378100
     24 H1          -0.7030     2.6870    -0.8310 ha         1 6ZU       0.129000
     25 H2          -3.0930     2.1750    -0.7660 ha         1 6ZU       0.147000
     26 H3           3.8510     1.7140     1.4190 hc         1 6ZU       0.067700
     27 H4           3.9950     0.1290     2.1180 hc         1 6ZU       0.067700
     28 H5           5.4490     2.0050    -0.2480 ha         1 6ZU       0.113000
     29 H6           6.6670     1.2280    -2.2380 ha         1 6ZU       0.113000
     30 H7           6.2700    -1.0490    -3.1310 ha         1 6ZU       0.113000
     31 H8           4.6500    -2.5390    -1.9950 ha         1 6ZU       0.113000
     32 H9           3.4390    -1.7700    -0.0110 ha         1 6ZU       0.113000
     33 H10          1.6080     2.3120    -1.4070 hc         1 6ZU       0.057700
     34 H11          1.3270     3.3800    -0.0410 hc         1 6ZU       0.057700
     35 H12          2.8910     2.6000    -0.2450 hc         1 6ZU       0.057700
     36 H13         -2.3090    -1.1850     1.7960 ha         1 6ZU       0.151000
     37 H14         -4.7210    -2.5920     0.6890 h1         1 6ZU       0.111033
     38 H15         -4.9200    -2.9200    -1.0540 h1         1 6ZU       0.111033
     39 H16         -3.3410    -2.3850    -0.4370 h1         1 6ZU       0.111033
     40 O17          2.2040    -1.4530     2.5330 o          1 6ZU      -0.480000
@<TRIPOS>BOND
     1     1     6 1   
     2     1    17 ar  
     3     1    18 ar  
     4     2     3 ar  
     5     2    17 ar  
     6     2    24 1   
     7     3     4 ar  
     8     3    25 1   
     9     4    18 ar  
    10     4    19 1   
    11     5     6 1   
    12     5     7 1   
    13     5    40 2   
    14     7     8 1   
    15     7    15 2   
    16     8     9 1   
    17     8    26 1   
    18     8    27 1   
    19     9    10 ar  
    20     9    14 ar  
    21    10    11 ar  
    22    10    28 1   
    23    11    12 ar  
    24    11    29 1   
    25    12    13 ar  
    26    12    30 1   
    27    13    14 ar  
    28    13    31 1   
    29    14    32 1   
    30    15    16 1   
    31    15    17 1   
    32    16    33 1   
    33    16    34 1   
    34    16    35 1   
    35    18    36 1   
    36    19    20 1   
    37    20    21 2   
    38    20    22 2   
    39    20    23 1   
    40    23    37 1   
    41    23    38 1   
    42    23    39 1   
@<TRIPOS>SUBSTRUCTURE
     1 6ZU         1 TEMP              0 ****  ****    0 ROOT
