@<TRIPOS>MOLECULE
6ZU
   40    42     1     0     0
SMALL
No Charge or Current Charge


@<TRIPOS>ATOM
      1 C2          -0.6050    -0.0730     1.1820 ca         1 6ZU       0.179100
      2 C4          -1.0280     1.8150    -0.2780 ca         1 6ZU      -0.040000
      3 C5          -2.4020     1.5170    -0.2600 ca         1 6ZU      -0.132000
      4 C6          -2.8720     0.4130     0.4670 ca         1 6ZU       0.158100
      5 C8           1.5970    -0.6920     1.9620 c          1 6ZU       0.672300
      6 O7           0.2440    -0.8660     1.8970 os         1 6ZU      -0.331200
      7 C9           2.1710     0.4610     1.1980 cc         1 6ZU      -0.211400
      8 C18          3.6870     0.6120     1.2960 c3         1 6ZU       0.020100
      9 C19          4.4130     0.1890     0.0210 ca         1 6ZU      -0.080300
     10 C24          5.3330     1.0590    -0.6000 ca         1 6ZU      -0.106000
     11 C23          6.0000     0.6680    -1.7740 ca         1 6ZU      -0.108500
     12 C22          5.7560    -0.5970    -2.3340 ca         1 6ZU      -0.109000
     13 C21          4.8470    -1.4720    -1.7170 ca         1 6ZU      -0.108500
     14 C20          4.1790    -1.0810    -0.5430 ca         1 6ZU      -0.106000
     15 C10          1.3390     1.2930     0.4550 cd         1 6ZU       0.041600
     16 C16          1.8740     2.4660    -0.3470 c3         1 6ZU      -0.067900
     17 C3          -0.1100     1.0160     0.4460 ca         1 6ZU      -0.144800
     18 C1          -1.9750    -0.3730     1.2000 ca         1 6ZU      -0.153000
     19 O11         -4.2120     0.1290     0.5100 os         1 6ZU      -0.439800
     20 S12         -4.9040    -0.6570    -0.7630 s6         1 6ZU       1.323700
     21 O13         -6.3350    -0.3300    -0.8070 o          1 6ZU      -0.517000
     22 O14         -4.0600    -0.5190    -1.9580 o          1 6ZU      -0.517000
     23 C15         -4.7150    -2.3110    -0.1130 c3         1 6ZU      -0.378100
     24 H1          -0.6960     2.6730    -0.8570 ha         1 6ZU       0.129000
     25 H2          -3.0990     2.1430    -0.8110 ha         1 6ZU       0.147000
     26 H3           3.9270     1.6540     1.5440 hc         1 6ZU       0.067700
     27 H4           4.1050     0.0500     2.1390 hc         1 6ZU       0.067700
     28 H5           5.5320     2.0400    -0.1750 ha         1 6ZU       0.113000
     29 H6           6.7060     1.3460    -2.2490 ha         1 6ZU       0.113000
     30 H7           6.2730    -0.8990    -3.2420 ha         1 6ZU       0.113000
     31 H8           4.6590    -2.4530    -2.1480 ha         1 6ZU       0.113000
     32 H9           3.4800    -1.7690    -0.0740 ha         1 6ZU       0.113000
     33 H10          1.6480     2.3420    -1.4120 hc         1 6ZU       0.057700
     34 H11          1.4180     3.4060    -0.0130 hc         1 6ZU       0.057700
     35 H12          2.9560     2.6010    -0.2710 hc         1 6ZU       0.057700
     36 H13         -2.3370    -1.2130     1.7850 ha         1 6ZU       0.151000
     37 H14         -5.2240    -2.3410     0.8550 h1         1 6ZU       0.111033
     38 H15         -5.1780    -2.9960    -0.8300 h1         1 6ZU       0.111033
     39 H16         -3.6430    -2.5060    -0.0120 h1         1 6ZU       0.111033
     40 O17          2.2730    -1.4690     2.6230 o          1 6ZU      -0.480000
@<TRIPOS>BOND
     1     1     6 1   
     2     1    17 ar  
     3     1    18 ar  
     4     2     3 ar  
     5     2    17 ar  
     6     2    24 1   
     7     3     4 ar  
     8     3    25 1   
     9     4    18 ar  
    10     4    19 1   
    11     5     6 1   
    12     5     7 1   
    13     5    40 2   
    14     7     8 1   
    15     7    15 2   
    16     8     9 1   
    17     8    26 1   
    18     8    27 1   
    19     9    10 ar  
    20     9    14 ar  
    21    10    11 ar  
    22    10    28 1   
    23    11    12 ar  
    24    11    29 1   
    25    12    13 ar  
    26    12    30 1   
    27    13    14 ar  
    28    13    31 1   
    29    14    32 1   
    30    15    16 1   
    31    15    17 1   
    32    16    33 1   
    33    16    34 1   
    34    16    35 1   
    35    18    36 1   
    36    19    20 1   
    37    20    21 2   
    38    20    22 2   
    39    20    23 1   
    40    23    37 1   
    41    23    38 1   
    42    23    39 1   
@<TRIPOS>SUBSTRUCTURE
     1 6ZU         1 TEMP              0 ****  ****    0 ROOT
