@<TRIPOS>MOLECULE
6ZV
   69    73     1     0     0
SMALL
bcc


@<TRIPOS>ATOM
      1 C1          -9.7730    -1.0300     0.5390 c3         1 6ZV       0.168800
      2 C2           0.4310    -0.8110    -0.5600 ca         1 6ZV       0.907900
      3 C3         -11.2590    -0.7590     0.7160 c3         1 6ZV      -0.090100
      4 C4           2.6080    -1.5280    -0.5620 cp         1 6ZV       0.526800
      5 C5           2.1820    -2.6570    -1.2560 ca         1 6ZV      -0.145700
      6 C6           0.8400    -2.7960    -1.5300 ca         1 6ZV       0.436200
      7 N2          -8.9460    -0.1540     1.3570 n3         1 6ZV      -0.719600
      8 C10         -3.7410     1.6100     0.1250 ca         1 6ZV      -0.041000
      9 C           -2.4160     1.3500     0.3870 ca         1 6ZV      -0.301300
     10 C17          4.4310     0.0640    -0.1570 ca         1 6ZV      -0.092000
     11 C21          4.8810    -2.3090     0.1650 ca         1 6ZV      -0.170000
     12 C12         -3.6270     0.0500    -1.6450 ca         1 6ZV       0.439200
     13 C16          4.0080    -1.2600    -0.1870 cp         1 6ZV      -0.129500
     14 C11         -4.3880     0.9500    -0.9220 ca         1 6ZV      -0.237600
     15 C19          6.6330    -0.7190     0.5690 ca         1 6ZV       0.044400
     16 C18          5.7450     0.3100     0.2170 ca         1 6ZV      -0.069200
     17 C20          6.1700    -2.0290     0.5430 ca         1 6ZV       0.188900
     18 C8          -1.7460     0.4180    -0.4220 ca         1 6ZV       0.680200
     19 C23          7.7340     1.0820     0.7500 cc         1 6ZV       0.423800
     20 C31         -8.0390     1.4420    -0.3270 c6         1 6ZV       0.127300
     21 C35         -6.6990    -0.4350     0.3050 c6         1 6ZV       0.127300
     22 C32         -8.9060     1.2290     0.9080 c6         1 6ZV       0.165300
     23 C34         -7.5850    -0.6280     1.5300 c6         1 6ZV       0.165300
     24 C25          8.8330     2.0500     0.9900 c3         1 6ZV      -0.115400
     25 C27          5.6940     3.0570    -1.3540 c3         1 6ZV      -0.108600
     26 C28          4.9020     3.2080     1.0550 c3         1 6ZV      -0.108600
     27 N           -2.3400    -0.2090    -1.4190 nb         1 6ZV      -0.682000
     28 N1          -0.0500    -1.8840    -1.1750 nb         1 6ZV      -0.683000
     29 N24          7.8570    -0.2130     0.8950 nd         1 6ZV      -0.557100
     30 N3           1.7070    -0.6110    -0.2370 nb         1 6ZV      -0.773000
     31 N22          6.4870     1.4600     0.3460 na         1 6ZV      -0.144300
     32 N30         -6.6880     0.9640    -0.0890 n3         1 6ZV      -0.717600
     33 N7          -0.4050     0.1960    -0.1600 nu         1 6ZV      -0.849600
     34 F29          6.9980    -3.0180     0.8970 f          1 6ZV      -0.122900
     35 F15          3.0420    -3.5930    -1.6770 f          1 6ZV      -0.122900
     36 H69         -9.5670    -2.0560     0.8540 h1         1 6ZV       0.027700
     37 H77         -9.5260    -0.9910    -0.5320 h1         1 6ZV       0.027700
     38 H78        -11.8430    -1.4970     0.1650 hc         1 6ZV       0.036700
     39 H79        -11.5430    -0.8190     1.7670 hc         1 6ZV       0.036700
     40 H76        -11.5480     0.2240     0.3430 hc         1 6ZV       0.036700
     41 H42          0.4770    -3.6750    -2.0530 h4         1 6ZV       0.042100
     42 H41         -4.2830     2.3190     0.7390 ha         1 6ZV       0.149000
     43 H68         -1.9020     1.8450     1.2000 ha         1 6ZV       0.141000
     44 H39          3.7440     0.8530    -0.4270 ha         1 6ZV       0.154000
     45 H40          4.5480    -3.3370     0.1800 ha         1 6ZV       0.160000
     46 H38         -4.0780    -0.4970    -2.4670 h4         1 6ZV       0.019100
     47 H44         -8.4980     0.9470    -1.2000 h1         1 6ZV       0.035950
     48 H43         -8.0010     2.5100    -0.5590 h1         1 6ZV       0.035950
     49 H65         -5.6830    -0.7510     0.5520 h1         1 6ZV       0.035950
     50 H66         -7.0400    -1.0830    -0.5230 h1         1 6ZV       0.035950
     51 H71         -9.9170     1.5910     0.7110 h1         1 6ZV       0.058200
     52 H72         -8.5090     1.8410     1.7250 h1         1 6ZV       0.058200
     53 H74         -7.1370    -0.0810     2.3670 h1         1 6ZV       0.058200
     54 H73         -7.6000    -1.6830     1.8100 h1         1 6ZV       0.058200
     55 H51          9.0780     2.6090     0.0850 hc         1 6ZV       0.060700
     56 H52          8.5770     2.7740     1.7650 hc         1 6ZV       0.060700
     57 H53          9.7210     1.5100     1.3070 hc         1 6ZV       0.060700
     58 H57          5.4470     4.1060    -1.5110 hc         1 6ZV       0.050033
     59 H58          6.5380     2.8080    -1.9960 hc         1 6ZV       0.050033
     60 H59          4.8360     2.4650    -1.6730 hc         1 6ZV       0.050033
     61 H62          3.9860     2.6560     0.8420 hc         1 6ZV       0.050033
     62 H60          5.1770     3.0280     2.0940 hc         1 6ZV       0.050033
     63 H61          4.6780     4.2690     0.9440 hc         1 6ZV       0.050033
     64 H63         -5.9590     2.2530    -1.5260 h1         1 6ZV       0.038200
     65 H64         -6.1310     0.6060    -2.1110 h1         1 6ZV       0.038200
     66 H67          6.8910     3.4660     0.3540 h1         1 6ZV       0.061700
     67 H70          0.0450     0.8770     0.4320 hn         1 6ZV       0.458800
     68 C14         -5.8330     1.2060    -1.2340 c3         1 6ZV       0.224100
     69 C26          6.0370     2.8320     0.1120 c3         1 6ZV       0.064000
@<TRIPOS>BOND
     1     1     3 1   
     2     1     7 1   
     3     1    36 1   
     4     1    37 1   
     5     2    28 ar  
     6     2    30 ar  
     7     2    33 1   
     8     3    38 1   
     9     3    39 1   
    10     3    40 1   
    11     4     5 ar  
    12     4    13 1   
    13     4    30 ar  
    14     5     6 ar  
    15     5    35 1   
    16     6    28 ar  
    17     6    41 1   
    18     7    22 1   
    19     7    23 1   
    20     8     9 ar  
    21     8    14 ar  
    22     8    42 1   
    23     9    18 ar  
    24     9    43 1   
    25    10    13 ar  
    26    10    16 ar  
    27    10    44 1   
    28    11    13 ar  
    29    11    17 ar  
    30    11    45 1   
    31    12    14 ar  
    32    12    27 ar  
    33    12    46 1   
    34    14    68 1   
    35    15    16 ar  
    36    15    17 ar  
    37    15    29 1   
    38    16    31 1   
    39    17    34 1   
    40    18    27 ar  
    41    18    33 1   
    42    19    24 1   
    43    19    29 2   
    44    19    31 1   
    45    20    22 1   
    46    20    32 1   
    47    20    47 1   
    48    20    48 1   
    49    21    23 1   
    50    21    32 1   
    51    21    49 1   
    52    21    50 1   
    53    22    51 1   
    54    22    52 1   
    55    23    53 1   
    56    23    54 1   
    57    24    55 1   
    58    24    56 1   
    59    24    57 1   
    60    25    58 1   
    61    25    59 1   
    62    25    60 1   
    63    25    69 1   
    64    26    61 1   
    65    26    62 1   
    66    26    63 1   
    67    26    69 1   
    68    31    69 1   
    69    32    68 1   
    70    33    67 1   
    71    64    68 1   
    72    65    68 1   
    73    66    69 1   
@<TRIPOS>SUBSTRUCTURE
     1 6ZV         1 TEMP              0 ****  ****    0 ROOT
