@<TRIPOS>MOLECULE
6ZV
   69    73     1     0     0
SMALL
No Charge or Current Charge


@<TRIPOS>ATOM
      1 C1          -9.7570    -1.0470     0.9100 c3         1 6ZV       0.168800
      2 C2           0.4590    -0.8600    -0.9310 ca         1 6ZV       0.381900
      3 C3         -11.2760    -0.7990     0.8100 c3         1 6ZV      -0.090100
      4 C4           2.6680    -1.5450    -0.8380 cp         1 6ZV       0.198500
      5 C5           2.3210    -2.6570    -1.6550 ca         1 6ZV       0.020000
      6 C6           0.9830    -2.7890    -2.0600 ca         1 6ZV       0.107900
      7 N2          -9.0030     0.0170     1.6250 n3         1 6ZV      -0.719600
      8 C10         -3.7510     1.7170    -0.2550 ca         1 6ZV      -0.023000
      9 C           -2.3850     1.4640    -0.0580 ca         1 6ZV      -0.218000
     10 C17          4.5320     0.0630    -0.1970 ca         1 6ZV      -0.074000
     11 C21          4.9360    -2.3330     0.0490 ca         1 6ZV      -0.152000
     12 C12         -3.7860    -0.2240    -1.6920 ca         1 6ZV       0.373900
     13 C16          4.0580    -1.2740    -0.3330 cp         1 6ZV      -0.129500
     14 C11         -4.4690     0.8490    -1.0940 ca         1 6ZV      -0.172300
     15 C19          6.6680    -0.7380     0.6380 ca         1 6ZV       0.044400
     16 C18          5.8340     0.2890     0.2850 ca         1 6ZV      -0.069200
     17 C20          6.2340    -2.0730     0.5290 ca         1 6ZV       0.224000
     18 C8          -1.7930     0.3660    -0.6980 ca         1 6ZV       0.614900
     19 C23          7.7960     1.0720     0.9960 cc         1 6ZV       0.423800
     20 C31         -8.1880     1.4070    -0.3520 c6         1 6ZV       0.127300
     21 C35         -6.7060    -0.3250     0.5710 c6         1 6ZV       0.127300
     22 C32         -9.0360     1.3620     0.9610 c6         1 6ZV       0.165300
     23 C34         -7.5730    -0.3560     1.8730 c6         1 6ZV       0.165300
     24 C25          8.8900     2.0280     1.3730 c3         1 6ZV      -0.115400
     25 C27          5.7570     3.1120    -1.2270 c3         1 6ZV      -0.108600
     26 C28          4.8430     3.1960     1.1840 c3         1 6ZV      -0.108600
     27 N           -2.4700    -0.4640    -1.5010 nb         1 6ZV      -0.682000
     28 N1           0.0460    -1.8930    -1.6950 nb         1 6ZV      -0.157000
     29 N24          7.9040    -0.2670     1.0880 nd         1 6ZV      -0.557100
     30 N3           1.7150    -0.6510    -0.4970 nb         1 6ZV      -0.247000
     31 N22          6.5380     1.4480     0.5070 na         1 6ZV      -0.173600
     32 N30         -6.7670     1.0020    -0.1220 n3         1 6ZV      -0.717600
     33 N7          -0.4470     0.1110    -0.5130 nu         1 6ZV      -0.904800
     34 F29          7.0430    -3.0980     0.8840 f          1 6ZV      -0.158000
     35 F15          3.2380    -3.5580    -2.0770 f          1 6ZV      -0.158000
     36 H69         -9.6180    -1.9990     1.4390 h1         1 6ZV       0.027700
     37 H77         -9.3620    -1.1890    -0.1050 h1         1 6ZV       0.027700
     38 H78        -11.7730    -1.6820     0.3910 hc         1 6ZV       0.036700
     39 H79        -11.7020    -0.6050     1.8020 hc         1 6ZV       0.036700
     40 H76        -11.5000     0.0520     0.1570 hc         1 6ZV       0.036700
     41 H42          0.6570    -3.6160    -2.6890 h4         1 6ZV       0.042100
     42 H41         -4.2410     2.5590     0.2310 ha         1 6ZV       0.131000
     43 H68         -1.7980     2.1120     0.5840 ha         1 6ZV       0.123000
     44 H39          3.8900     0.8920    -0.4770 ha         1 6ZV       0.136000
     45 H40          4.6070    -3.3670    -0.0090 ha         1 6ZV       0.142000
     46 H38         -4.3080    -0.9180    -2.3500 h4         1 6ZV       0.019100
     47 H44         -8.6540     0.7510    -1.1020 h1         1 6ZV       0.035950
     48 H43         -8.2270     2.4290    -0.7560 h1         1 6ZV       0.035950
     49 H65         -5.6680    -0.5660     0.8460 h1         1 6ZV       0.035950
     50 H66         -7.0470    -1.1220    -0.1060 h1         1 6ZV       0.035950
     51 H71        -10.0660     1.6750     0.7380 h1         1 6ZV       0.058200
     52 H72         -8.6320     2.1200     1.6490 h1         1 6ZV       0.058200
     53 H74         -7.1280     0.3450     2.5950 h1         1 6ZV       0.058200
     54 H73         -7.5050    -1.3550     2.3270 h1         1 6ZV       0.058200
     55 H51          9.1840     2.6390     0.5120 hc         1 6ZV       0.060700
     56 H52          8.5590     2.6980     2.1750 hc         1 6ZV       0.060700
     57 H53          9.7790     1.4920     1.7260 hc         1 6ZV       0.060700
     58 H57          5.5160     4.1720    -1.3710 hc         1 6ZV       0.050033
     59 H58          6.6460     2.8840    -1.8280 hc         1 6ZV       0.050033
     60 H59          4.9220     2.5210    -1.6150 hc         1 6ZV       0.050033
     61 H62          3.9460     2.6110     0.9560 hc         1 6ZV       0.050033
     62 H60          5.1050     3.0250     2.2350 hc         1 6ZV       0.050033
     63 H61          4.5920     4.2570     1.0680 hc         1 6ZV       0.050033
     64 H63         -6.0710     2.0450    -1.8300 h1         1 6ZV       0.038200
     65 H64         -6.3070     0.3140    -2.0770 h1         1 6ZV       0.038200
     66 H67          6.8390     3.5040     0.5500 h1         1 6ZV       0.061700
     67 H70         -0.0110     0.8100     0.0800 hn         1 6ZV       0.514000
     68 C14         -5.9510     1.0620    -1.3550 c3         1 6ZV       0.224100
     69 C26          6.0290     2.8210     0.2660 c3         1 6ZV       0.093300
@<TRIPOS>BOND
     1     1     3 1   
     2     1     7 1   
     3     1    36 1   
     4     1    37 1   
     5     2    28 ar  
     6     2    30 ar  
     7     2    33 1   
     8     3    38 1   
     9     3    39 1   
    10     3    40 1   
    11     4     5 ar  
    12     4    13 1   
    13     4    30 ar  
    14     5     6 ar  
    15     5    35 1   
    16     6    28 ar  
    17     6    41 1   
    18     7    22 1   
    19     7    23 1   
    20     8     9 ar  
    21     8    14 ar  
    22     8    42 1   
    23     9    18 ar  
    24     9    43 1   
    25    10    13 ar  
    26    10    16 ar  
    27    10    44 1   
    28    11    13 ar  
    29    11    17 ar  
    30    11    45 1   
    31    12    14 ar  
    32    12    27 ar  
    33    12    46 1   
    34    14    68 1   
    35    15    16 ar  
    36    15    17 ar  
    37    15    29 1   
    38    16    31 1   
    39    17    34 1   
    40    18    27 ar  
    41    18    33 1   
    42    19    24 1   
    43    19    29 2   
    44    19    31 1   
    45    20    22 1   
    46    20    32 1   
    47    20    47 1   
    48    20    48 1   
    49    21    23 1   
    50    21    32 1   
    51    21    49 1   
    52    21    50 1   
    53    22    51 1   
    54    22    52 1   
    55    23    53 1   
    56    23    54 1   
    57    24    55 1   
    58    24    56 1   
    59    24    57 1   
    60    25    58 1   
    61    25    59 1   
    62    25    60 1   
    63    25    69 1   
    64    26    61 1   
    65    26    62 1   
    66    26    63 1   
    67    26    69 1   
    68    31    69 1   
    69    32    68 1   
    70    33    67 1   
    71    64    68 1   
    72    65    68 1   
    73    66    69 1   
@<TRIPOS>SUBSTRUCTURE
     1 6ZV         1 TEMP              0 ****  ****    0 ROOT
