@<TRIPOS>MOLECULE
6ZW
   34    35     1     0     0
SMALL
abcg2


@<TRIPOS>ATOM
      1 O17         -3.8470    -2.1980     0.1170 o          1 6ZW      -0.498000
      2 C8          -3.1460    -1.2170     0.0280 c          1 6ZW       0.678300
      3 O7          -1.8000    -1.4210     0.0550 os         1 6ZW      -0.344200
      4 C2          -0.8970    -0.4150    -0.0310 ca         1 6ZW       0.227100
      5 C9          -3.5950     0.1430    -0.1030 cc         1 6ZW      -0.360200
      6 C10         -2.7280     1.1810    -0.1940 cd         1 6ZW       0.066600
      7 C16         -3.2170     2.5850    -0.3280 c3         1 6ZW      -0.065900
      8 C3          -1.3190     0.9110    -0.1600 ca         1 6ZW      -0.222800
      9 C4          -0.3100     1.8810    -0.2440 ca         1 6ZW      -0.006000
     10 C5           1.0210     1.5520    -0.2020 ca         1 6ZW      -0.226000
     11 C6           1.4410     0.2010    -0.0740 ca         1 6ZW       0.403000
     12 C1           0.4340    -0.7790     0.0100 ca         1 6ZW      -0.244000
     13 N11          2.7540    -0.1310    -0.0330 nh         1 6ZW      -0.822400
     14 C14          3.1890    -1.4900     0.2340 c3         1 6ZW       0.224800
     15 C15          3.2840    -2.3510    -1.0180 c3         1 6ZW      -0.116600
     16 C12          3.8070     0.8570    -0.1960 c3         1 6ZW       0.224800
     17 C13          4.2050     1.5290     1.1100 c3         1 6ZW      -0.116600
     18 H1          -4.6650     0.2990    -0.1240 ha         1 6ZW       0.209000
     19 H2          -4.3040     2.6270    -0.3240 hc         1 6ZW       0.052367
     20 H3          -2.8480     3.2040     0.4910 hc         1 6ZW       0.052367
     21 H4          -2.8600     3.0350    -1.2560 hc         1 6ZW       0.052367
     22 H5          -0.5790     2.9250    -0.3390 ha         1 6ZW       0.112000
     23 H6           1.7420     2.3530    -0.2510 ha         1 6ZW       0.117000
     24 H7           0.6700    -1.8300     0.0960 ha         1 6ZW       0.138000
     25 H8           4.1690    -1.4320     0.7110 h1         1 6ZW       0.050450
     26 H9           2.5330    -1.9520     0.9730 h1         1 6ZW       0.050450
     27 H10          3.6350    -3.3510    -0.7620 hc         1 6ZW       0.043867
     28 H11          2.3170    -2.4510    -1.5130 hc         1 6ZW       0.043867
     29 H12          3.9850    -1.9210    -1.7340 hc         1 6ZW       0.043867
     30 H13          4.6700     0.3460    -0.6260 h1         1 6ZW       0.050450
     31 H14          3.5130     1.6010    -0.9370 h1         1 6ZW       0.050450
     32 H15          4.9970     2.2590     0.9350 hc         1 6ZW       0.043867
     33 H16          3.3630     2.0490     1.5660 hc         1 6ZW       0.043867
     34 H17          4.5790     0.7980     1.8280 hc         1 6ZW       0.043867
@<TRIPOS>BOND
     1     1     2 2   
     2     2     3 1   
     3     2     5 1   
     4     3     4 1   
     5     4     8 ar  
     6     4    12 ar  
     7     5     6 2   
     8     5    18 1   
     9     6     7 1   
    10     6     8 1   
    11     7    19 1   
    12     7    20 1   
    13     7    21 1   
    14     8     9 ar  
    15     9    10 ar  
    16     9    22 1   
    17    10    11 ar  
    18    10    23 1   
    19    11    12 ar  
    20    11    13 1   
    21    12    24 1   
    22    13    14 1   
    23    13    16 1   
    24    14    15 1   
    25    14    25 1   
    26    14    26 1   
    27    15    27 1   
    28    15    28 1   
    29    15    29 1   
    30    16    17 1   
    31    16    30 1   
    32    16    31 1   
    33    17    32 1   
    34    17    33 1   
    35    17    34 1   
@<TRIPOS>SUBSTRUCTURE
     1 6ZW         1 TEMP              0 ****  ****    0 ROOT
