@<TRIPOS>MOLECULE
6ZW
   34    35     1     0     0
SMALL
No Charge or Current Charge


@<TRIPOS>ATOM
      1 O17         -4.0450    -2.1390    -0.6630 o          1 6ZW      -0.498000
      2 C8          -3.2600    -1.2170    -0.4980 c          1 6ZW       0.678300
      3 O7          -1.9110    -1.4260    -0.4420 os         1 6ZW      -0.344200
      4 C2          -0.9900    -0.4280    -0.2590 ca         1 6ZW       0.227100
      5 C9          -3.7060     0.1730    -0.3500 cc         1 6ZW      -0.360200
      6 C10         -2.8370     1.2210    -0.1650 cd         1 6ZW       0.066600
      7 C16         -3.3560     2.6310    -0.0190 c3         1 6ZW      -0.065900
      8 C3          -1.4030     0.9070    -0.1170 ca         1 6ZW      -0.222800
      9 C4          -0.4240     1.9030     0.0670 ca         1 6ZW      -0.006000
     10 C5           0.9360     1.5540     0.1050 ca         1 6ZW      -0.226000
     11 C6           1.3480     0.2160    -0.0370 ca         1 6ZW       0.403000
     12 C1           0.3650    -0.7700    -0.2190 ca         1 6ZW      -0.244000
     13 N11          2.7250    -0.1300     0.0030 nh         1 6ZW      -0.822400
     14 C14          3.1790    -1.4340     0.5460 c3         1 6ZW       0.224800
     15 C15          3.5530    -2.4620    -0.5380 c3         1 6ZW      -0.116600
     16 C12          3.7700     0.7980    -0.4940 c3         1 6ZW       0.224800
     17 C13          4.5240     1.5420     0.6240 c3         1 6ZW      -0.116600
     18 H1          -4.7780     0.3140    -0.3980 ha         1 6ZW       0.209000
     19 H2          -4.4500     2.6710    -0.0810 hc         1 6ZW       0.052367
     20 H3          -3.0670     3.0580     0.9480 hc         1 6ZW       0.052367
     21 H4          -2.9600     3.2790    -0.8090 hc         1 6ZW       0.052367
     22 H5          -0.7010     2.9480     0.1830 ha         1 6ZW       0.112000
     23 H6           1.6680     2.3400     0.2590 ha         1 6ZW       0.117000
     24 H7           0.6430    -1.8090    -0.3430 ha         1 6ZW       0.138000
     25 H8           4.0520    -1.2810     1.1960 h1         1 6ZW       0.050450
     26 H9           2.4000    -1.8650     1.1890 h1         1 6ZW       0.050450
     27 H10          3.8400    -3.4120    -0.0730 hc         1 6ZW       0.043867
     28 H11          2.7070    -2.6500    -1.2090 hc         1 6ZW       0.043867
     29 H12          4.3980    -2.1070    -1.1380 hc         1 6ZW       0.043867
     30 H13          4.5010     0.2440    -1.0970 h1         1 6ZW       0.050450
     31 H14          3.3220     1.5390    -1.1710 h1         1 6ZW       0.050450
     32 H15          5.2500     2.2380     0.1900 hc         1 6ZW       0.043867
     33 H16          3.8310     2.1140     1.2510 hc         1 6ZW       0.043867
     34 H17          5.0680     0.8380     1.2640 hc         1 6ZW       0.043867
@<TRIPOS>BOND
     1     1     2 2   
     2     2     3 1   
     3     2     5 1   
     4     3     4 1   
     5     4     8 ar  
     6     4    12 ar  
     7     5     6 2   
     8     5    18 1   
     9     6     7 1   
    10     6     8 1   
    11     7    19 1   
    12     7    20 1   
    13     7    21 1   
    14     8     9 ar  
    15     9    10 ar  
    16     9    22 1   
    17    10    11 ar  
    18    10    23 1   
    19    11    12 ar  
    20    11    13 1   
    21    12    24 1   
    22    13    14 1   
    23    13    16 1   
    24    14    15 1   
    25    14    25 1   
    26    14    26 1   
    27    15    27 1   
    28    15    28 1   
    29    15    29 1   
    30    16    17 1   
    31    16    30 1   
    32    16    31 1   
    33    17    32 1   
    34    17    33 1   
    35    17    34 1   
@<TRIPOS>SUBSTRUCTURE
     1 6ZW         1 TEMP              0 ****  ****    0 ROOT
