@<TRIPOS>MOLECULE
6ZX
   21    21     1     0     0
SMALL
abcg2


@<TRIPOS>ATOM
      1 C8          -0.5660    -0.8890     0.6170 ca         1 6ZX      -0.113500
      2 C13         -0.8340     1.2460    -0.4200 ca         1 6ZX      -0.113500
      3 C9          -1.9350    -1.0930     0.5760 ca         1 6ZX      -0.109500
      4 C12         -2.2070     1.0570    -0.4740 ca         1 6ZX      -0.109500
      5 C7           0.0180     0.2760     0.1120 ca         1 6ZX       0.004200
      6 C10         -2.7490    -0.1160     0.0240 ca         1 6ZX       0.093000
      7 C4           2.3040    -0.5640    -0.0160 ce         1 6ZX      -0.206200
      8 C5           1.4860     0.4850     0.1580 cf         1 6ZX      -0.135400
      9 C2           3.8170    -0.6030    -0.0420 c          1 6ZX       0.700200
     10 C6           1.9400     1.9030     0.3510 c3         1 6ZX      -0.036900
     11 O3           4.4660     0.2270     0.6250 o          1 6ZX      -0.720500
     12 O1           4.2910    -1.5160    -0.7500 o          1 6ZX      -0.720500
     13 CL11        -4.4650    -0.3590    -0.0290 cl         1 6ZX      -0.248000
     14 H8           0.0560    -1.6500     1.0720 ha         1 6ZX       0.119500
     15 H9          -2.3610    -2.0010     0.9810 ha         1 6ZX       0.112000
     16 H13         -0.4320     2.1670    -0.8190 ha         1 6ZX       0.119500
     17 H12         -2.8430     1.8200    -0.9030 ha         1 6ZX       0.112000
     18 H4           1.8420    -1.5240    -0.2300 ha         1 6ZX       0.147000
     19 H61C         1.3990     2.3750     1.1740 hc         1 6ZX       0.034700
     20 H62C         3.0040     1.9510     0.5560 hc         1 6ZX       0.034700
     21 H63C         1.7400     2.5060    -0.5390 hc         1 6ZX       0.034700
@<TRIPOS>BOND
     1     1     3 ar  
     2     1     5 ar  
     3     1    14 1   
     4     2     4 ar  
     5     2     5 ar  
     6     2    16 1   
     7     3     6 ar  
     8     3    15 1   
     9     4     6 ar  
    10     4    17 1   
    11     5     8 1   
    12     6    13 1   
    13     7     8 2   
    14     7     9 1   
    15     7    18 1   
    16     8    10 1   
    17     9    11 1   
    18     9    12 1   
    19    10    19 1   
    20    10    20 1   
    21    10    21 1   
@<TRIPOS>SUBSTRUCTURE
     1 6ZX         1 TEMP              0 ****  ****    0 ROOT
