@<TRIPOS>MOLECULE
6ZX
   21    21     1     0     0
SMALL
No Charge or Current Charge


@<TRIPOS>ATOM
      1 C8          -0.5670    -0.8960     0.6210 ca         1 6ZX      -0.113500
      2 C13         -0.8480     1.2590    -0.4670 ca         1 6ZX      -0.113500
      3 C9          -1.9610    -1.0800     0.6180 ca         1 6ZX      -0.109500
      4 C12         -2.2430     1.0740    -0.4720 ca         1 6ZX      -0.109500
      5 C7           0.0050     0.2770     0.0850 ca         1 6ZX       0.004200
      6 C10         -2.7980    -0.0940     0.0730 ca         1 6ZX       0.093000
      7 C4           2.3600    -0.5720    -0.1610 ce         1 6ZX      -0.206200
      8 C5           1.4780     0.4530     0.0850 cf         1 6ZX      -0.135400
      9 C2           3.8620    -0.5730    -0.1820 c          1 6ZX       0.700200
     10 C6           1.9220     1.8590     0.4870 c3         1 6ZX      -0.036900
     11 O3           4.4870     0.4580     0.0070 o          1 6ZX      -0.720500
     12 O1           4.4070    -1.6410    -0.4170 o          1 6ZX      -0.720500
     13 Cl11        -4.5410    -0.3240     0.0670 cl         1 6ZX      -0.248000
     14 H8           0.0680    -1.6640     1.0560 ha         1 6ZX       0.119500
     15 H9          -2.3920    -1.9850     1.0390 ha         1 6ZX       0.112000
     16 H13         -0.4340     2.1620    -0.9090 ha         1 6ZX       0.119500
     17 H12         -2.8910     1.8350    -0.9000 ha         1 6ZX       0.112000
     18 H4           1.9370    -1.5440    -0.4020 ha         1 6ZX       0.147000
     19 H61C         1.1050     2.4530     0.9150 hc         1 6ZX       0.034700
     20 H62C         2.7000     1.8300     1.2570 hc         1 6ZX       0.034700
     21 H63C         2.3160     2.4110    -0.3750 hc         1 6ZX       0.034700
@<TRIPOS>BOND
     1     1     3 ar  
     2     1     5 ar  
     3     1    14 1   
     4     2     4 ar  
     5     2     5 ar  
     6     2    16 1   
     7     3     6 ar  
     8     3    15 1   
     9     4     6 ar  
    10     4    17 1   
    11     5     8 1   
    12     6    13 1   
    13     7     8 2   
    14     7     9 1   
    15     7    18 1   
    16     8    10 1   
    17     9    11 1   
    18     9    12 1   
    19    10    19 1   
    20    10    20 1   
    21    10    21 1   
@<TRIPOS>SUBSTRUCTURE
     1 6ZX         1 TEMP              0 ****  ****    0 ROOT
