@<TRIPOS>MOLECULE
6ZY
   52    55     1     0     0
SMALL
No Charge or Current Charge


@<TRIPOS>ATOM
      1 C11         -0.1310    -2.3080    -0.0410 c          1 6ZY       0.671300
      2 C2          -2.3240    -1.3210     0.2020 ca         1 6ZY       0.182100
      3 C3          -1.9360    -0.1390    -0.4770 ca         1 6ZY      -0.164800
      4 C5          -4.1980     0.6900    -0.1940 ca         1 6ZY      -0.138800
      5 C9          -5.3710     1.5440    -0.2550 cc         1 6ZY      -0.122400
      6 C8          -6.3520     0.8040     0.3980 cd         1 6ZY       0.037900
      7 C6          -4.5410    -0.4610     0.4670 ca         1 6ZY       0.111100
      8 C1          -3.6340    -1.4960     0.6860 ca         1 6ZY      -0.136000
      9 O21          4.5800    -0.9220    -1.7250 o          1 6ZY      -0.606100
     10 C20          4.2390    -0.5390    -0.6120 c          1 6ZY       0.605100
     11 N22          5.2070    -0.1010     0.3260 n          1 6ZY      -0.404800
     12 C27          6.6550    -0.0360    -0.0070 c6         1 6ZY       0.093500
     13 C26          7.1280     1.4360    -0.0990 c6         1 6ZY      -0.101400
     14 C25          6.8000     2.2060     1.2050 c6         1 6ZY      -0.074400
     15 C24          5.3010     2.0620     1.5680 c6         1 6ZY      -0.101400
     16 C23          4.8840     0.5720     1.6160 c6         1 6ZY       0.093500
     17 C19          2.7530    -0.5530    -0.2000 c3         1 6ZY      -0.154400
     18 C12          0.3230    -1.0810    -0.7680 cc         1 6ZY      -0.224400
     19 O17          0.5990    -3.2650     0.1820 o          1 6ZY      -0.484000
     20 O10         -1.4240    -2.3270     0.4010 os         1 6ZY      -0.332200
     21 C13         -0.5470    -0.0130    -0.9590 cd         1 6ZY       0.037600
     22 C16         -0.1010     1.2760    -1.6290 c3         1 6ZY      -0.068900
     23 C4          -2.9000     0.8870    -0.6840 ca         1 6ZY      -0.006000
     24 C15         -5.4720     2.9070    -0.8860 c3         1 6ZY      -0.020900
     25 C14         -7.7950     1.1300     0.6720 c3         1 6ZY      -0.031900
     26 O7          -5.8480    -0.3980     0.8290 os         1 6ZY      -0.172200
     27 H1          -3.9280    -2.4020     1.2060 ha         1 6ZY       0.156000
     28 H2           7.2250    -0.5550     0.7770 h1         1 6ZY       0.057200
     29 H3           6.8700    -0.5510    -0.9540 h1         1 6ZY       0.057200
     30 H4           8.2080     1.4700    -0.2950 hc         1 6ZY       0.048200
     31 H5           6.6370     1.9240    -0.9520 hc         1 6ZY       0.048200
     32 H6           7.4170     1.8170     2.0270 hc         1 6ZY       0.041700
     33 H7           7.0610     3.2670     1.0910 hc         1 6ZY       0.041700
     34 H8           5.1020     2.5370     2.5380 hc         1 6ZY       0.048200
     35 H9           4.6860     2.5910     0.8260 hc         1 6ZY       0.048200
     36 H10          3.8200     0.5000     1.8700 h1         1 6ZY       0.057200
     37 H11          5.4350     0.0690     2.4240 h1         1 6ZY       0.057200
     38 H12          2.6720    -1.0800     0.7570 hc         1 6ZY       0.060700
     39 H13          2.4750     0.4680     0.0880 hc         1 6ZY       0.060700
     40 H14          1.8800    -0.5860    -2.1930 hc         1 6ZY       0.074200
     41 H15          2.0710    -2.1550    -1.4910 hc         1 6ZY       0.074200
     42 H16         -0.4340     2.1520    -1.0600 hc         1 6ZY       0.054367
     43 H17          0.9850     1.3760    -1.7070 hc         1 6ZY       0.054367
     44 H18         -0.5150     1.3530    -2.6410 hc         1 6ZY       0.054367
     45 H19         -2.6650     1.8060    -1.2120 ha         1 6ZY       0.125000
     46 H20         -4.7100     3.5810    -0.4790 hc         1 6ZY       0.044033
     47 H21         -5.3260     2.8440    -1.9700 hc         1 6ZY       0.044033
     48 H22         -6.4540     3.3600    -0.7030 hc         1 6ZY       0.044033
     49 H23         -8.3010     0.3030     1.1820 hc         1 6ZY       0.059033
     50 H24         -7.8800     2.0190     1.3070 hc         1 6ZY       0.059033
     51 H25         -8.3340     1.3290    -0.2610 hc         1 6ZY       0.059033
     52 C18          1.7690    -1.1280    -1.2460 c3         1 6ZY      -0.012200
@<TRIPOS>BOND
     1     1    18 1   
     2     1    19 2   
     3     1    20 1   
     4     2     3 ar  
     5     2     8 ar  
     6     2    20 1   
     7     3    21 1   
     8     3    23 ar  
     9     4     5 1   
    10     4     7 ar  
    11     4    23 ar  
    12     5     6 2   
    13     5    24 1   
    14     6    25 1   
    15     6    26 1   
    16     7     8 ar  
    17     7    26 1   
    18     8    27 1   
    19     9    10 2   
    20    10    11 1   
    21    10    17 1   
    22    11    12 1   
    23    11    16 1   
    24    12    13 1   
    25    12    28 1   
    26    12    29 1   
    27    13    14 1   
    28    13    30 1   
    29    13    31 1   
    30    14    15 1   
    31    14    32 1   
    32    14    33 1   
    33    15    16 1   
    34    15    34 1   
    35    15    35 1   
    36    16    36 1   
    37    16    37 1   
    38    17    38 1   
    39    17    39 1   
    40    17    52 1   
    41    18    21 2   
    42    18    52 1   
    43    21    22 1   
    44    22    42 1   
    45    22    43 1   
    46    22    44 1   
    47    23    45 1   
    48    24    46 1   
    49    24    47 1   
    50    24    48 1   
    51    25    49 1   
    52    25    50 1   
    53    25    51 1   
    54    40    52 1   
    55    41    52 1   
@<TRIPOS>SUBSTRUCTURE
     1 6ZY         1 TEMP              0 ****  ****    0 ROOT
