@<TRIPOS>MOLECULE
6ZY
   52    55     1     0     0
SMALL
abcg2


@<TRIPOS>ATOM
      1 C11         -0.1030    -2.3470    -0.0830 c          1 6ZY       0.671300
      2 C2          -2.2400    -1.3180     0.1300 ca         1 6ZY       0.182100
      3 C3          -1.7990    -0.1480    -0.5080 ca         1 6ZY      -0.164800
      4 C5          -3.9980     0.7700    -0.2170 ca         1 6ZY      -0.138800
      5 C9          -5.1700     1.6090    -0.2140 cc         1 6ZY      -0.122400
      6 C8          -6.1360     0.8830     0.3910 cd         1 6ZY       0.037900
      7 C6          -4.3820    -0.4210     0.4080 ca         1 6ZY       0.111100
      8 C1          -3.5330    -1.4890     0.6030 ca         1 6ZY      -0.136000
      9 O21          4.5680    -1.1380    -1.5380 o          1 6ZY      -0.606100
     10 C20          4.2020    -0.6560    -0.4730 c          1 6ZY       0.605100
     11 N22          5.0740    -0.1470     0.4240 n          1 6ZY      -0.404800
     12 C27          6.4810     0.0040     0.0860 c6         1 6ZY       0.093500
     13 C26          6.8070     1.4700    -0.1790 c6         1 6ZY      -0.101400
     14 C25          6.4080     2.3370     1.0120 c6         1 6ZY      -0.074400
     15 C24          4.9560     2.0880     1.4090 c6         1 6ZY      -0.101400
     16 C23          4.6990     0.6000     1.6140 c6         1 6ZY       0.093500
     17 C19          2.7290    -0.6270    -0.1030 c3         1 6ZY      -0.154400
     18 C12          0.3910    -1.1670    -0.7800 cc         1 6ZY      -0.224400
     19 O17          0.5500    -3.3310     0.1740 o          1 6ZY      -0.484000
     20 O10         -1.3930    -2.3560     0.3180 os         1 6ZY      -0.332200
     21 C13         -0.4220    -0.0970    -0.9640 cd         1 6ZY       0.037600
     22 C16          0.0440     1.1650    -1.6160 c3         1 6ZY      -0.068900
     23 C4          -2.7000     0.9090    -0.6760 ca         1 6ZY      -0.006000
     24 C15         -5.2550     2.9870    -0.7710 c3         1 6ZY      -0.020900
     25 C14         -7.5520     1.1680     0.7060 c3         1 6ZY      -0.031900
     26 O7          -5.6710    -0.3530     0.7760 os         1 6ZY      -0.172200
     27 H1          -3.8410    -2.4050     1.0890 ha         1 6ZY       0.156000
     28 H2           7.0760    -0.3620     0.9300 h1         1 6ZY       0.057200
     29 H3           6.7200    -0.6170    -0.7730 h1         1 6ZY       0.057200
     30 H4           7.8740     1.5730    -0.3890 hc         1 6ZY       0.048200
     31 H5           6.2710     1.7970    -1.0750 hc         1 6ZY       0.048200
     32 H6           7.0600     2.1040     1.8610 hc         1 6ZY       0.041700
     33 H7           6.5640     3.3940     0.7830 hc         1 6ZY       0.041700
     34 H8           4.7060     2.6290     2.3240 hc         1 6ZY       0.048200
     35 H9           4.2870     2.4580     0.6250 hc         1 6ZY       0.048200
     36 H10          3.6620     0.4150     1.8790 h1         1 6ZY       0.057200
     37 H11          5.3020     0.2300     2.4490 h1         1 6ZY       0.057200
     38 H12          2.5780    -1.1720     0.8330 hc         1 6ZY       0.060700
     39 H13          2.4230     0.4030     0.1010 hc         1 6ZY       0.060700
     40 H14          1.9800    -0.6710    -2.1270 hc         1 6ZY       0.074200
     41 H15          2.1240    -2.2440    -1.3950 hc         1 6ZY       0.074200
     42 H16         -0.0410     2.0040    -0.9220 hc         1 6ZY       0.054367
     43 H17          1.0760     1.1150    -1.9460 hc         1 6ZY       0.054367
     44 H18         -0.5690     1.4070    -2.4860 hc         1 6ZY       0.054367
     45 H19         -2.3880     1.8260    -1.1580 ha         1 6ZY       0.125000
     46 H20         -4.5590     3.6590    -0.2660 hc         1 6ZY       0.044033
     47 H21         -5.0030     3.0000    -1.8320 hc         1 6ZY       0.044033
     48 H22         -6.2550     3.4040    -0.6630 hc         1 6ZY       0.044033
     49 H23         -8.2160     0.4170     0.2730 hc         1 6ZY       0.059033
     50 H24         -7.7270     1.1800     1.7840 hc         1 6ZY       0.059033
     51 H25         -7.8380     2.1380     0.3080 hc         1 6ZY       0.059033
     52 C18          1.8350    -1.2140    -1.1930 c3         1 6ZY      -0.012200
@<TRIPOS>BOND
     1     1    18 1   
     2     1    19 2   
     3     1    20 1   
     4     2     3 ar  
     5     2     8 ar  
     6     2    20 1   
     7     3    21 1   
     8     3    23 ar  
     9     4     5 1   
    10     4     7 ar  
    11     4    23 ar  
    12     5     6 2   
    13     5    24 1   
    14     6    25 1   
    15     6    26 1   
    16     7     8 ar  
    17     7    26 1   
    18     8    27 1   
    19     9    10 2   
    20    10    11 1   
    21    10    17 1   
    22    11    12 1   
    23    11    16 1   
    24    12    13 1   
    25    12    28 1   
    26    12    29 1   
    27    13    14 1   
    28    13    30 1   
    29    13    31 1   
    30    14    15 1   
    31    14    32 1   
    32    14    33 1   
    33    15    16 1   
    34    15    34 1   
    35    15    35 1   
    36    16    36 1   
    37    16    37 1   
    38    17    38 1   
    39    17    39 1   
    40    17    52 1   
    41    18    21 2   
    42    18    52 1   
    43    21    22 1   
    44    22    42 1   
    45    22    43 1   
    46    22    44 1   
    47    23    45 1   
    48    24    46 1   
    49    24    47 1   
    50    24    48 1   
    51    25    49 1   
    52    25    50 1   
    53    25    51 1   
    54    40    52 1   
    55    41    52 1   
@<TRIPOS>SUBSTRUCTURE
     1 6ZY         1 TEMP              0 ****  ****    0 ROOT
