@<TRIPOS>MOLECULE
6ZZ
   62    66     1     0     0
SMALL
No Charge or Current Charge


@<TRIPOS>ATOM
      1 C2          -0.0400     0.1740    -0.1180 ca         1 6ZZ       0.403900
      2 C4          -1.0560     2.2300    -0.2340 ca         1 6ZZ       0.193900
      3 C5          -2.2860     1.5620    -0.1840 ca         1 6ZZ      -0.253800
      4 C6          -2.3390     0.1980    -0.1040 ca         1 6ZZ       0.178500
      5 C20          4.2460     1.0230    -0.0460 ca         1 6ZZ       0.319900
      6 N            2.9030     0.8240    -0.0580 nb         1 6ZZ      -0.659000
      7 C9          -3.6130     2.0710    -0.2420 cc         1 6ZZ      -0.161200
      8 C18          4.7160    -1.3420    -0.0740 ca         1 6ZZ      -0.075000
      9 C19          5.2130    -0.0240    -0.0590 ca         1 6ZZ       0.192000
     10 C8          -4.4760     0.9760    -0.1830 cd         1 6ZZ      -0.134300
     11 C16          2.4610    -0.4390    -0.0800 ca         1 6ZZ       0.594900
     12 C10         -5.9790     1.0600    -0.3380 c          1 6ZZ       0.632300
     13 C24         -4.2320    -3.8050     0.9590 c5         1 6ZZ      -0.078400
     14 C25         -4.2440    -3.9490    -0.5960 c5         1 6ZZ      -0.078400
     15 C23         -3.5280    -2.4450     1.1950 c5         1 6ZZ      -0.086400
     16 C26         -3.9030    -2.5260    -1.1410 c5         1 6ZZ      -0.086400
     17 C28          7.5230    -0.4830    -1.0190 c6         1 6ZZ       0.151800
     18 C32          7.1680     1.5280     0.4350 c6         1 6ZZ       0.151800
     19 C29          9.0100    -0.5330    -0.5390 c6         1 6ZZ       0.145800
     20 C31          8.6640     1.4340     0.8820 c6         1 6ZZ       0.145800
     21 C22         -4.1730    -1.5950     0.0700 c5         1 6ZZ       0.091300
     22 C13         -6.1100     3.2560     0.9450 c3         1 6ZZ       0.086300
     23 C14         -8.0370     2.4810    -0.4570 c3         1 6ZZ       0.086300
     24 C            3.3230    -1.5460    -0.0850 ca         1 6ZZ      -0.194000
     25 N1           0.0880     1.5190    -0.1970 nb         1 6ZZ      -0.198000
     26 N3          -1.1970    -0.5200    -0.0760 nb         1 6ZZ      -0.272000
     27 N7          -3.6760    -0.2130    -0.0820 na         1 6ZZ      -0.163400
     28 N27          6.6220     0.2150    -0.0430 nh         1 6ZZ      -0.766400
     29 N15          1.0920    -0.6350    -0.0850 nu         1 6ZZ      -0.900800
     30 N11         -6.6240     2.2960    -0.0610 n          1 6ZZ      -0.401800
     31 N30          9.5360     0.8080    -0.1530 n7         1 6ZZ      -0.842400
     32 O12         -6.6470     0.1020    -0.7070 o          1 6ZZ      -0.596100
     33 H35         -0.9790     3.3140    -0.3080 h4         1 6ZZ       0.026100
     34 H34         -3.8910     3.1060    -0.4250 ha         1 6ZZ       0.211000
     35 H36          5.3910    -2.1930    -0.0620 ha         1 6ZZ       0.122000
     36 H38         -5.2530    -3.7920     1.3580 hc         1 6ZZ       0.046200
     37 H37         -3.7080    -4.6340     1.4500 hc         1 6ZZ       0.046200
     38 H39         -3.5100    -4.6860    -0.9400 hc         1 6ZZ       0.046200
     39 H40         -5.2240    -4.2910    -0.9480 hc         1 6ZZ       0.046200
     40 H42         -3.7310    -2.0390     2.1930 hc         1 6ZZ       0.057450
     41 H41         -2.4410    -2.5400     1.0940 hc         1 6ZZ       0.057450
     42 H43         -2.8550    -2.4710    -1.4600 hc         1 6ZZ       0.057450
     43 H44         -4.5140    -2.2560    -2.0100 hc         1 6ZZ       0.057450
     44 H45          7.4820     0.0380    -1.9880 h1         1 6ZZ       0.040200
     45 H46          7.1880    -1.5140    -1.1970 h1         1 6ZZ       0.040200
     46 H48          6.5800     1.8950     1.2890 h1         1 6ZZ       0.040200
     47 H47          7.0840     2.2770    -0.3660 h1         1 6ZZ       0.040200
     48 H49          9.0780    -1.2120     0.3250 h1         1 6ZZ       0.061450
     49 H50          9.6340    -0.9620    -1.3370 h1         1 6ZZ       0.061450
     50 H51          9.0350     2.4410     1.1230 h1         1 6ZZ       0.061450
     51 H52          8.7170     0.8400     1.8070 h1         1 6ZZ       0.061450
     52 H53         -5.2500    -1.5620     0.2650 h1         1 6ZZ       0.072700
     53 H55         -5.6660     4.1240     0.4430 h1         1 6ZZ       0.044367
     54 H56         -6.9350     3.6070     1.5780 h1         1 6ZZ       0.044367
     55 H54         -5.3670     2.7790     1.5970 h1         1 6ZZ       0.044367
     56 H57         -8.1830     2.1460    -1.4920 h1         1 6ZZ       0.044367
     57 H58         -8.6880     1.8970     0.2070 h1         1 6ZZ       0.044367
     58 H59         -8.3150     3.5410    -0.3910 h1         1 6ZZ       0.044367
     59 H60          2.9220    -2.5550    -0.0940 ha         1 6ZZ       0.121000
     60 H61          0.8510    -1.6200    -0.0600 hn         1 6ZZ       0.509000
     61 H62          9.5130     1.4070    -0.9880 hn         1 6ZZ       0.403000
     62 H33          4.5580     2.0660    -0.0360 h4         1 6ZZ       0.020100
@<TRIPOS>BOND
     1     1    25 ar  
     2     1    26 ar  
     3     1    29 1   
     4     2     3 ar  
     5     2    25 ar  
     6     2    33 1   
     7     3     4 ar  
     8     3     7 1   
     9     4    26 ar  
    10     4    27 1   
    11     5     6 ar  
    12     5     9 ar  
    13     5    62 1   
    14     6    11 ar  
    15     7    10 2   
    16     7    34 1   
    17     8     9 ar  
    18     8    24 ar  
    19     8    35 1   
    20     9    28 1   
    21    10    12 1   
    22    10    27 1   
    23    11    24 ar  
    24    11    29 1   
    25    12    30 1   
    26    12    32 2   
    27    13    14 1   
    28    13    15 1   
    29    13    36 1   
    30    13    37 1   
    31    14    16 1   
    32    14    38 1   
    33    14    39 1   
    34    15    21 1   
    35    15    40 1   
    36    15    41 1   
    37    16    21 1   
    38    16    42 1   
    39    16    43 1   
    40    17    19 1   
    41    17    28 1   
    42    17    44 1   
    43    17    45 1   
    44    18    20 1   
    45    18    28 1   
    46    18    46 1   
    47    18    47 1   
    48    19    31 1   
    49    19    48 1   
    50    19    49 1   
    51    20    31 1   
    52    20    50 1   
    53    20    51 1   
    54    21    27 1   
    55    21    52 1   
    56    22    30 1   
    57    22    53 1   
    58    22    54 1   
    59    22    55 1   
    60    23    30 1   
    61    23    56 1   
    62    23    57 1   
    63    23    58 1   
    64    24    59 1   
    65    29    60 1   
    66    31    61 1   
@<TRIPOS>SUBSTRUCTURE
     1 6ZZ         1 TEMP              0 ****  ****    0 ROOT
