@<TRIPOS>MOLECULE
6ZZ
   62    66     1     0     0
SMALL
bcc


@<TRIPOS>ATOM
      1 C2          -0.1180     0.2180    -0.0630 ca         1 6ZZ       0.929900
      2 C4          -0.9600     2.3170    -0.3350 ca         1 6ZZ       0.522200
      3 C5          -2.2510     1.8090    -0.3260 ca         1 6ZZ      -0.384400
      4 C6          -2.3370     0.4090    -0.1780 ca         1 6ZZ       0.506800
      5 C20          4.1660     0.8880     0.0700 ca         1 6ZZ       0.385200
      6 N            2.8380     0.7590     0.0700 nb         1 6ZZ      -0.659000
      7 C9          -3.5830     2.2960    -0.4310 cc         1 6ZZ      -0.111200
      8 C18          4.4820    -1.4540     0.1310 ca         1 6ZZ      -0.093000
      9 C19          5.0620    -0.1750     0.1040 ca         1 6ZZ      -0.011700
     10 C8          -4.3970     1.2040    -0.3540 cd         1 6ZZ      -0.134300
     11 C16          2.3130    -0.4470     0.0790 ca         1 6ZZ       0.660200
     12 C10         -5.8520     1.1560    -0.6550 c          1 6ZZ       0.699300
     13 C24         -2.9260    -3.2840     0.7990 c5         1 6ZZ      -0.078400
     14 C25         -3.6360    -3.6170    -0.5120 c5         1 6ZZ      -0.078400
     15 C23         -3.6190    -2.0060     1.2770 c5         1 6ZZ      -0.086400
     16 C26         -3.7970    -2.2500    -1.1720 c5         1 6ZZ      -0.086400
     17 C28          7.2040    -0.7630    -0.8570 c6         1 6ZZ       0.151800
     18 C32          6.9550     1.3260     0.3300 c6         1 6ZZ       0.151800
     19 C29          8.6880    -0.7640    -0.5180 c6         1 6ZZ       0.145800
     20 C31          8.4440     1.2960     0.6520 c6         1 6ZZ       0.145800
     21 C22         -4.1420    -1.3080    -0.0050 c5         1 6ZZ       0.062000
     22 C13         -6.2960     2.7790     1.1690 c3         1 6ZZ       0.086300
     23 C14         -8.0200     2.1870    -0.4580 c3         1 6ZZ       0.086300
     24 C            3.1180    -1.5980     0.1110 ca         1 6ZZ      -0.277300
     25 N1           0.0960     1.5320    -0.2070 nb         1 6ZZ      -0.724000
     26 N3          -1.2980    -0.3940    -0.0370 nb         1 6ZZ      -0.798000
     27 N7          -3.6430     0.0470    -0.1980 na         1 6ZZ      -0.134100
     28 N27          6.4490    -0.0220     0.1500 nh         1 6ZZ      -0.628000
     29 N15          0.9410    -0.6400     0.0680 nu         1 6ZZ      -0.845600
     30 N11         -6.6390     2.0520    -0.0370 n          1 6ZZ      -0.468800
     31 N30          9.2410     0.5620    -0.3130 n7         1 6ZZ      -0.787200
     32 O12         -6.2670     0.3670    -1.4980 o          1 6ZZ      -0.596100
     33 H35         -0.7680     3.3790    -0.4470 h4         1 6ZZ       0.026100
     34 H34         -3.9010     3.3160    -0.5820 ha         1 6ZZ       0.161000
     35 H36          5.1030    -2.3390     0.1840 ha         1 6ZZ       0.140000
     36 H38         -2.9770    -4.0890     1.5330 hc         1 6ZZ       0.046200
     37 H37         -1.8720    -3.0800     0.6010 hc         1 6ZZ       0.046200
     38 H39         -3.0810    -4.3200    -1.1350 hc         1 6ZZ       0.046200
     39 H40         -4.6140    -4.0620    -0.3090 hc         1 6ZZ       0.046200
     40 H42         -4.4710    -2.2540     1.9120 hc         1 6ZZ       0.057450
     41 H41         -2.9640    -1.3670     1.8670 hc         1 6ZZ       0.057450
     42 H43         -2.8500    -1.9540    -1.6270 hc         1 6ZZ       0.057450
     43 H44         -4.5590    -2.2200    -1.9500 hc         1 6ZZ       0.057450
     44 H45          7.0520    -0.3260    -1.8560 h1         1 6ZZ       0.040200
     45 H46          6.8530    -1.7940    -0.9030 h1         1 6ZZ       0.040200
     46 H48          6.4240     1.8010     1.1580 h1         1 6ZZ       0.040200
     47 H47          6.7890     1.9490    -0.5640 h1         1 6ZZ       0.040200
     48 H49          8.8420    -1.3470     0.3950 h1         1 6ZZ       0.061450
     49 H50          9.2380    -1.2650    -1.3170 h1         1 6ZZ       0.061450
     50 H51          8.8120     2.3210     0.7210 h1         1 6ZZ       0.061450
     51 H52          8.5860     0.8390     1.6360 h1         1 6ZZ       0.061450
     52 H53         -5.2210    -1.2220     0.0680 h1         1 6ZZ       0.072700
     53 H55         -6.2230     3.8510     0.9760 h1         1 6ZZ       0.044367
     54 H56         -7.0740     2.6200     1.9170 h1         1 6ZZ       0.044367
     55 H54         -5.3540     2.4370     1.5850 h1         1 6ZZ       0.044367
     56 H57         -8.1310     1.9400    -1.5090 h1         1 6ZZ       0.044367
     57 H58         -8.6810     1.5450     0.1270 h1         1 6ZZ       0.044367
     58 H59         -8.3320     3.2210    -0.3120 h1         1 6ZZ       0.044367
     59 H60          2.6740    -2.5860     0.1340 ha         1 6ZZ       0.139000
     60 H61          0.6470    -1.6020     0.1400 hn         1 6ZZ       0.453800
     61 H62          9.2440     1.0640    -1.1940 hn         1 6ZZ       0.347800
     62 H33          4.5210     1.9120     0.0490 h4         1 6ZZ       0.020100
@<TRIPOS>BOND
     1     1    25 ar  
     2     1    26 ar  
     3     1    29 1   
     4     2     3 ar  
     5     2    25 ar  
     6     2    33 1   
     7     3     4 ar  
     8     3     7 1   
     9     4    26 ar  
    10     4    27 1   
    11     5     6 ar  
    12     5     9 ar  
    13     5    62 1   
    14     6    11 ar  
    15     7    10 2   
    16     7    34 1   
    17     8     9 ar  
    18     8    24 ar  
    19     8    35 1   
    20     9    28 1   
    21    10    12 1   
    22    10    27 1   
    23    11    24 ar  
    24    11    29 1   
    25    12    30 1   
    26    12    32 2   
    27    13    14 1   
    28    13    15 1   
    29    13    36 1   
    30    13    37 1   
    31    14    16 1   
    32    14    38 1   
    33    14    39 1   
    34    15    21 1   
    35    15    40 1   
    36    15    41 1   
    37    16    21 1   
    38    16    42 1   
    39    16    43 1   
    40    17    19 1   
    41    17    28 1   
    42    17    44 1   
    43    17    45 1   
    44    18    20 1   
    45    18    28 1   
    46    18    46 1   
    47    18    47 1   
    48    19    31 1   
    49    19    48 1   
    50    19    49 1   
    51    20    31 1   
    52    20    50 1   
    53    20    51 1   
    54    21    27 1   
    55    21    52 1   
    56    22    30 1   
    57    22    53 1   
    58    22    54 1   
    59    22    55 1   
    60    23    30 1   
    61    23    56 1   
    62    23    57 1   
    63    23    58 1   
    64    24    59 1   
    65    29    60 1   
    66    31    61 1   
@<TRIPOS>SUBSTRUCTURE
     1 6ZZ         1 TEMP              0 ****  ****    0 ROOT
