@<TRIPOS>MOLECULE
100
   28    30     1     0     0
SMALL
abcg2


@<TRIPOS>ATOM
      1 N1          -6.2720    -0.3320     0.0150 na         1 100       0.111600
      2 N3          -5.2470    -1.1330     0.0130 nc         1 100      -0.461800
      3 C3          -4.2460    -0.2750     0.0100 cd         1 100       0.514800
      4 N4          -4.6840     0.9960     0.0110 nd         1 100      -0.363000
      5 N2          -5.9710     0.9340     0.0130 nc         1 100      -0.170800
      6 C8          -2.8390    -0.6670     0.0070 cf         1 100       0.172300
      7 C9          -1.8420     0.2530     0.0050 ce         1 100      -0.450200
      8 O1          -2.6450    -1.9680     0.0070 oh         1 100      -0.533100
      9 C1           4.7930     0.8000    -0.0160 ca         1 100      -0.088000
     10 C2           4.1730    -0.4550    -0.0120 ca         1 100       0.098000
     11 C10          2.8020    -0.6140    -0.0070 ca         1 100      -0.044000
     12 C4           2.0150     0.5410    -0.0070 ca         1 100      -0.043800
     13 C5           2.6450     1.8000    -0.0100 ca         1 100      -0.070200
     14 C6           4.0260     1.9490    -0.0150 ca         1 100      -0.113000
     15 C7           0.5980     0.7930    -0.0030 cc         1 100      -0.230400
     16 C12          0.4520     2.1680    -0.0040 cd         1 100      -0.085100
     17 N9           1.6590     2.7550    -0.0080 na         1 100      -0.203700
     18 C11         -0.4620    -0.1880     0.0010 c          1 100       0.637500
     19 O2          -0.1890    -1.4040     0.0020 o          1 100      -0.613100
     20 HN1         -7.2300    -0.6590     0.0150 hn         1 100       0.411000
     21 H9          -2.0940     1.3020     0.0060 ha         1 100       0.212000
     22 HO1         -1.6520    -2.0900     0.0050 ho         1 100       0.536000
     23 H1           5.8710     0.8720    -0.0200 ha         1 100       0.129000
     24 H10          2.3580    -1.5980    -0.0040 ha         1 100       0.155000
     25 H6           4.4920     2.9250    -0.0180 ha         1 100       0.119000
     26 H12         -0.4430     2.7700    -0.0020 h4         1 100       0.223000
     27 HN9          1.8100     3.7510    -0.0120 hn         1 100       0.356000
     28 CL1          5.1810    -1.8700    -0.0130 cl         1 100      -0.207000
@<TRIPOS>BOND
     1     1     2 1   
     2     1     5 1   
     3     1    20 1   
     4     2     3 2   
     5     3     4 1   
     6     3     6 1   
     7     4     5 2   
     8     6     7 2   
     9     6     8 1   
    10     7    18 1   
    11     7    21 1   
    12     8    22 1   
    13     9    10 ar  
    14     9    14 ar  
    15     9    23 1   
    16    10    11 ar  
    17    10    28 1   
    18    11    12 ar  
    19    11    24 1   
    20    12    13 ar  
    21    12    15 1   
    22    13    14 ar  
    23    13    17 1   
    24    14    25 1   
    25    15    16 2   
    26    15    18 1   
    27    16    17 1   
    28    16    26 1   
    29    17    27 1   
    30    18    19 2   
@<TRIPOS>SUBSTRUCTURE
     1 100         1 TEMP              0 ****  ****    0 ROOT
