@<TRIPOS>MOLECULE
100
   28    30     1     0     0
SMALL
No Charge or Current Charge


@<TRIPOS>ATOM
      1 N1          -6.4170    -0.2610     0.0160 na         1 100       0.111600
      2 N3          -5.3650    -1.1320     0.0140 nc         1 100      -0.461800
      3 C3          -4.3400    -0.2920     0.0100 cd         1 100       0.514800
      4 N4          -4.7440     1.0310     0.0100 nd         1 100      -0.363000
      5 N2          -6.0460     1.0500     0.0130 nc         1 100      -0.170800
      6 C8          -2.9050    -0.7150     0.0070 cf         1 100       0.172300
      7 C9          -1.8230     0.1200     0.0030 ce         1 100      -0.450200
      8 O1          -2.6820    -2.0440     0.0090 oh         1 100      -0.533100
      9 C1           4.8540     0.8350    -0.0150 ca         1 100      -0.088000
     10 C2           4.2630    -0.4490    -0.0120 ca         1 100       0.098000
     11 C10          2.8610    -0.5910    -0.0080 ca         1 100      -0.044000
     12 C4           2.0790     0.5760    -0.0070 ca         1 100      -0.043800
     13 C5           2.6510     1.8200    -0.0100 ca         1 100      -0.070200
     14 C6           4.0430     1.9890    -0.0140 ca         1 100      -0.113000
     15 C7           0.6500     0.7660    -0.0040 cc         1 100      -0.230400
     16 C12          0.4360     2.1470    -0.0050 cd         1 100      -0.085100
     17 N9           1.6860     2.8110    -0.0090 na         1 100      -0.203700
     18 C11         -0.3920    -0.2980     0.0000 c          1 100       0.637500
     19 O2          -0.1210    -1.4930     0.0010 o          1 100      -0.613100
     20 HN1         -7.3950    -0.5530     0.0190 hn         1 100       0.411000
     21 H9          -2.0180     1.1860     0.0020 ha         1 100       0.212000
     22 HO1         -1.6910    -2.1290     0.0060 ho         1 100       0.536000
     23 H1           5.9370     0.9320    -0.0180 ha         1 100       0.129000
     24 H10          2.4110    -1.5790    -0.0060 ha         1 100       0.155000
     25 H6           4.4880     2.9820    -0.0170 ha         1 100       0.119000
     26 H12         -0.4910     2.7150    -0.0030 h4         1 100       0.223000
     27 HN9          1.8420     3.8150    -0.0100 hn         1 100       0.356000
     28 Cl1          5.2860    -1.8810    -0.0130 cl         1 100      -0.207000
@<TRIPOS>BOND
     1     1     2 1   
     2     1     5 1   
     3     1    20 1   
     4     2     3 2   
     5     3     4 1   
     6     3     6 1   
     7     4     5 2   
     8     6     7 2   
     9     6     8 1   
    10     7    18 1   
    11     7    21 1   
    12     8    22 1   
    13     9    10 ar  
    14     9    14 ar  
    15     9    23 1   
    16    10    11 ar  
    17    10    28 1   
    18    11    12 ar  
    19    11    24 1   
    20    12    13 ar  
    21    12    15 1   
    22    13    14 ar  
    23    13    17 1   
    24    14    25 1   
    25    15    16 2   
    26    15    18 1   
    27    16    17 1   
    28    16    26 1   
    29    17    27 1   
    30    18    19 2   
@<TRIPOS>SUBSTRUCTURE
     1 100         1 TEMP              0 ****  ****    0 ROOT
