@<TRIPOS>MOLECULE
104
   28    27     1     0     0
SMALL
No Charge or Current Charge


@<TRIPOS>ATOM
      1 N1          -0.2590     0.0110     5.6560 n8         1 104      -0.997200
      2 C2           0.4910    -0.0390     4.3760 c3         1 104       0.145300
      3 C3          -0.4300     0.0190     3.1220 c3         1 104       0.157300
      4 N4           0.3590    -0.0120     1.8690 n7         1 104      -0.866400
      5 C5          -0.4430     0.0080     0.6220 c3         1 104       0.156800
      6 C6           0.4590    -0.0600    -0.6430 c3         1 104       0.156800
      7 N7          -0.3430    -0.0400    -1.8890 n7         1 104      -0.866400
      8 C8           0.4460    -0.0730    -3.1430 c3         1 104       0.157300
      9 C9          -0.4760    -0.0180    -4.3960 c3         1 104       0.145300
     10 N10          0.2750    -0.0490    -5.6760 n8         1 104      -0.997200
     11 H11         -0.7270     0.9220     5.7340 hn         1 104       0.392750
     12 H12          0.4110     0.0180     6.4350 hn         1 104       0.392750
     13 H21          1.1940     0.8060     4.3520 h1         1 104       0.033950
     14 H22          1.0750    -0.9700     4.3520 h1         1 104       0.033950
     15 H31         -1.1220    -0.8340     3.1540 h1         1 104       0.037450
     16 H32         -1.0320     0.9370     3.1660 h1         1 104       0.037450
     17 HN4          0.9810     0.8060     1.8610 hn         1 104       0.404000
     18 H51         -1.1360    -0.8440     0.6060 h1         1 104       0.036450
     19 H52         -1.0460     0.9260     0.5750 h1         1 104       0.036450
     20 H61          1.1520     0.7920    -0.6270 h1         1 104       0.036450
     21 H62          1.0630    -0.9780    -0.5960 h1         1 104       0.036450
     22 HN7         -0.9650    -0.8580    -1.8820 hn         1 104       0.404000
     23 H81          1.1380     0.7800    -3.1760 h1         1 104       0.037450
     24 H82          1.0490    -0.9910    -3.1860 h1         1 104       0.037450
     25 H91         -1.1630    -0.8750    -4.3780 h1         1 104       0.033950
     26 H92         -1.0750     0.9020    -4.3660 h1         1 104       0.033950
     27 H101        -0.3890     0.0440    -6.4540 hn         1 104       0.392750
     28 H102         0.8480     0.8020    -5.7480 hn         1 104       0.392750
@<TRIPOS>BOND
     1     1     2 1   
     2     1    11 1   
     3     1    12 1   
     4     2     3 1   
     5     2    13 1   
     6     2    14 1   
     7     3     4 1   
     8     3    15 1   
     9     3    16 1   
    10     4     5 1   
    11     4    17 1   
    12     5     6 1   
    13     5    18 1   
    14     5    19 1   
    15     6     7 1   
    16     6    20 1   
    17     6    21 1   
    18     7     8 1   
    19     7    22 1   
    20     8     9 1   
    21     8    23 1   
    22     8    24 1   
    23     9    10 1   
    24     9    25 1   
    25     9    26 1   
    26    10    27 1   
    27    10    28 1   
@<TRIPOS>SUBSTRUCTURE
     1 104         1 TEMP              0 ****  ****    0 ROOT
