@<TRIPOS>MOLECULE
104
   28    27     1     0     0
SMALL
bcc


@<TRIPOS>ATOM
      1 N1          -0.2900     0.0750     5.4720 n8         1 104      -0.886800
      2 C2           0.5040    -0.0250     4.2570 c3         1 104       0.145300
      3 C3          -0.3960     0.0270     3.0330 c3         1 104       0.157300
      4 N4           0.3820    -0.0540     1.8130 n7         1 104      -0.811200
      5 C5          -0.4320    -0.0050     0.6150 c3         1 104       0.156800
      6 C6           0.4340    -0.0830    -0.6310 c3         1 104       0.156800
      7 N7          -0.3770    -0.0350    -1.8310 n7         1 104      -0.811200
      8 C8           0.4090    -0.0620    -3.0480 c3         1 104       0.157300
      9 C9          -0.4820     0.0050    -4.2780 c3         1 104       0.145300
     10 N10          0.3250    -0.0030    -5.4890 n8         1 104      -0.886800
     11 H11         -0.6870     1.0040     5.5350 hn         1 104       0.337550
     12 H12          0.3140    -0.0170     6.2790 hn         1 104       0.337550
     13 H21          1.2720     0.7580     4.1680 h1         1 104       0.033950
     14 H22          1.0350    -0.9800     4.2640 h1         1 104       0.033950
     15 H31         -1.0880    -0.8200     3.0650 h1         1 104       0.037450
     16 H32         -1.0180     0.9370     3.0780 h1         1 104       0.037450
     17 HN4          1.0330     0.7230     1.7930 hn         1 104       0.348800
     18 H51         -1.1190    -0.8590     0.6320 h1         1 104       0.036450
     19 H52         -1.0610     0.8970     0.5590 h1         1 104       0.036450
     20 H61          1.1170     0.7730    -0.6470 h1         1 104       0.036450
     21 H62          1.0670    -0.9830    -0.5750 h1         1 104       0.036450
     22 HN7         -1.0040    -0.8320    -1.8310 hn         1 104       0.348800
     23 H81          1.0780     0.8050    -3.0430 h1         1 104       0.037450
     24 H82          1.0570    -0.9510    -3.1240 h1         1 104       0.037450
     25 H91         -1.1320    -0.8750    -4.2950 h1         1 104       0.033950
     26 H92         -1.1420     0.8780    -4.1860 h1         1 104       0.033950
     27 H101        -0.2800    -0.0450    -6.2990 hn         1 104       0.337550
     28 H102         0.8180     0.8790    -5.5650 hn         1 104       0.337550
@<TRIPOS>BOND
     1     1     2 1   
     2     1    11 1   
     3     1    12 1   
     4     2     3 1   
     5     2    13 1   
     6     2    14 1   
     7     3     4 1   
     8     3    15 1   
     9     3    16 1   
    10     4     5 1   
    11     4    17 1   
    12     5     6 1   
    13     5    18 1   
    14     5    19 1   
    15     6     7 1   
    16     6    20 1   
    17     6    21 1   
    18     7     8 1   
    19     7    22 1   
    20     8     9 1   
    21     8    23 1   
    22     8    24 1   
    23     9    10 1   
    24     9    25 1   
    25     9    26 1   
    26    10    27 1   
    27    10    28 1   
@<TRIPOS>SUBSTRUCTURE
     1 104         1 TEMP              0 ****  ****    0 ROOT
