@<TRIPOS>MOLECULE
106
   34    36     1     0     0
SMALL
abcg2


@<TRIPOS>ATOM
      1 N1          40.5250    10.0230   -15.3250 ns         1 106      -0.391100
      2 C2          39.4860    10.3290   -14.4890 c          1 106       0.465700
      3 C3          39.7270     9.5520   -13.2370 cc         1 106       0.275900
      4 C4          41.6510     7.8960   -12.6530 ca         1 106      -0.014000
      5 C5          42.8040     7.3340   -13.1890 ca         1 106      -0.042900
      6 C6          43.2640     7.6480   -14.4640 ca         1 106      -0.046000
      7 C7          42.5590     8.5530   -15.2590 ca         1 106      -0.140000
      8 C8          41.4080     9.1130   -14.7370 ca         1 106       0.069600
      9 C9          40.9500     8.7960   -13.4430 ca         1 106      -0.154900
     10 O11         38.5470    11.0870   -14.7260 o          1 106      -0.554000
     11 N12         38.9920     9.5420   -12.1700 n2         1 106      -0.307400
     12 BR4         43.7940     6.0750   -12.1330 br         1 106      -0.099100
     13 N17         37.8950    10.2710   -12.1420 nu         1 106      -0.640300
     14 C19         37.0660    10.2880   -11.0310 ca         1 106       0.369000
     15 C20         35.8650    10.9990   -11.1190 ca         1 106      -0.173500
     16 C21         34.9980    11.0320   -10.0410 ca         1 106       0.025500
     17 C22         35.3330    10.3600    -8.8690 ca         1 106      -0.318500
     18 C23         36.5360     9.6590    -8.7720 ca         1 106       0.025500
     19 C24         37.4020     9.6180    -9.8470 ca         1 106      -0.173500
     20 S27         34.2600    10.4530    -7.4730 sy         1 106       1.161600
     21 O28         33.0230    11.0690    -7.9050 o          1 106      -0.554000
     22 O29         34.9570    11.0530    -6.3540 o          1 106      -0.554000
     23 N30         34.0590     8.8700    -7.0690 n8         1 106      -1.020100
     24 H4          41.3090     7.6410   -11.6600 ha         1 106       0.145000
     25 H6          44.1670     7.1910   -14.8440 ha         1 106       0.135000
     26 H7          42.9070     8.8010   -16.2520 ha         1 106       0.129000
     27 H20         35.6110    11.5120   -12.0370 ha         1 106       0.134000
     28 H21         34.0650    11.5720   -10.1090 ha         1 106       0.138500
     29 H23         36.7910     9.1410    -7.8570 ha         1 106       0.138500
     30 H24         38.3310     9.0730    -9.7800 ha         1 106       0.134000
     31 H301        33.8390     8.7720    -6.0820 hn         1 106       0.478000
     32 H302        33.3780     8.4010    -7.6580 hn         1 106       0.478000
     33 H1          40.6240    10.4050   -16.2540 hn         1 106       0.347500
     34 H2          37.6470    10.8130   -12.9700 hn         1 106       0.534000
@<TRIPOS>BOND
     1     1     2 1   
     2     1     8 1   
     3     1    33 1   
     4     2     3 1   
     5     2    10 2   
     6     3     9 1   
     7     3    11 2   
     8     4     5 ar  
     9     4     9 ar  
    10     4    24 1   
    11     5     6 ar  
    12     5    12 1   
    13     6     7 ar  
    14     6    25 1   
    15     7     8 ar  
    16     7    26 1   
    17     8     9 ar  
    18    11    13 1   
    19    13    14 1   
    20    13    34 1   
    21    14    15 ar  
    22    14    19 ar  
    23    15    16 ar  
    24    15    27 1   
    25    16    17 ar  
    26    16    28 1   
    27    17    18 ar  
    28    17    20 1   
    29    18    19 ar  
    30    18    29 1   
    31    19    30 1   
    32    20    21 2   
    33    20    22 2   
    34    20    23 1   
    35    23    31 1   
    36    23    32 1   
@<TRIPOS>SUBSTRUCTURE
     1 106         1 TEMP              0 ****  ****    0 ROOT
