@<TRIPOS>MOLECULE
106
   34    36     1     0     0
SMALL
No Charge or Current Charge


@<TRIPOS>ATOM
      1 N1          40.4850     9.8530   -15.4520 ns         1 106      -0.391100
      2 C2          39.4220    10.1700   -14.6390 c          1 106       0.465700
      3 C3          39.7670     9.4850   -13.3430 cc         1 106       0.275900
      4 C4          41.8230     8.0370   -12.6760 ca         1 106      -0.014000
      5 C5          43.0380     7.5120   -13.1700 ca         1 106      -0.042900
      6 C6          43.4540     7.7660   -14.5010 ca         1 106      -0.046000
      7 C7          42.6560     8.5530   -15.3610 ca         1 106      -0.140000
      8 C8          41.4590     9.0590   -14.8480 ca         1 106       0.069600
      9 C9          41.0480     8.8150   -13.5490 ca         1 106      -0.154900
     10 O11         38.4510    10.8530   -14.9520 o          1 106      -0.554000
     11 N12         39.0550     9.4900   -12.2430 n2         1 106      -0.307400
     12 Br4         44.1370     6.4440   -12.0250 br         1 106      -0.099100
     13 N17         37.8580    10.1530   -12.1490 nu         1 106      -0.640300
     14 C19         37.0490    10.1980   -11.0020 ca         1 106       0.369000
     15 C20         35.8430    10.9170   -11.0430 ca         1 106      -0.173500
     16 C21         35.0100    10.9820    -9.9130 ca         1 106       0.025500
     17 C22         35.3850    10.3230    -8.7270 ca         1 106      -0.318500
     18 C23         36.5910     9.5980    -8.6780 ca         1 106       0.025500
     19 C24         37.4170     9.5390    -9.8130 ca         1 106      -0.173500
     20 S27         34.3270    10.4020    -7.2830 sy         1 106       1.161600
     21 O28         33.4120    11.5370    -7.3640 o          1 106      -0.554000
     22 O29         35.0710    10.0810    -6.0680 o          1 106      -0.554000
     23 N30         33.3520     9.1140    -7.4810 n8         1 106      -1.020100
     24 H4          41.5000     7.8450   -11.6550 ha         1 106       0.145000
     25 H6          44.3930     7.3540   -14.8630 ha         1 106       0.135000
     26 H7          42.9620     8.7560   -16.3850 ha         1 106       0.129000
     27 H20         35.5450    11.4290   -11.9530 ha         1 106       0.134000
     28 H21         34.0780    11.5430    -9.9660 ha         1 106       0.138500
     29 H23         36.8930     9.0790    -7.7690 ha         1 106       0.138500
     30 H24         38.3450     8.9770    -9.7640 ha         1 106       0.134000
     31 H301        33.4720     8.6640    -6.5770 hn         1 106       0.478000
     32 H302        32.4460     9.5640    -7.3750 hn         1 106       0.478000
     33 H1          40.5490    10.1730   -16.4120 hn         1 106       0.347500
     34 H2          37.4770    10.6750   -12.9520 hn         1 106       0.534000
@<TRIPOS>BOND
     1     1     2 1   
     2     1     8 1   
     3     1    33 1   
     4     2     3 1   
     5     2    10 2   
     6     3     9 1   
     7     3    11 2   
     8     4     5 ar  
     9     4     9 ar  
    10     4    24 1   
    11     5     6 ar  
    12     5    12 1   
    13     6     7 ar  
    14     6    25 1   
    15     7     8 ar  
    16     7    26 1   
    17     8     9 ar  
    18    11    13 1   
    19    13    14 1   
    20    13    34 1   
    21    14    15 ar  
    22    14    19 ar  
    23    15    16 ar  
    24    15    27 1   
    25    16    17 ar  
    26    16    28 1   
    27    17    18 ar  
    28    17    20 1   
    29    18    19 ar  
    30    18    29 1   
    31    19    30 1   
    32    20    21 2   
    33    20    22 2   
    34    20    23 1   
    35    23    31 1   
    36    23    32 1   
@<TRIPOS>SUBSTRUCTURE
     1 106         1 TEMP              0 ****  ****    0 ROOT
