@<TRIPOS>MOLECULE
108
   31    31     1     0     0
SMALL
abcg2


@<TRIPOS>ATOM
      1 C1          -0.0710    -0.1890     2.7350 ca         1 108      -0.200900
      2 C2           0.3130     0.1610     1.4460 ca         1 108       0.005000
      3 C3          -0.5680     0.7170     0.5250 ca         1 108      -0.165300
      4 C4          -1.8990     0.9040     0.9140 ca         1 108       0.160100
      5 C5          -2.3060     0.5430     2.1990 ca         1 108      -0.172000
      6 C6          -1.4050     0.0060     3.0970 ca         1 108      -0.069000
      7 C7          -0.0470     1.0470    -0.8510 c3         1 108       0.222100
      8 C8           0.9270    -0.7670     3.6710 ce         1 108       0.662800
      9 O1          -2.8500     1.4220     0.1130 oh         1 108      -0.548100
     10 N1           0.6060    -0.6740     4.9970 nv         1 108      -1.079200
     11 N2           1.9680    -1.3380     3.1950 n2         1 108      -0.812100
     12 N            0.4070    -0.1480    -1.5230 n7         1 108      -0.863400
     13 CA           0.9190     0.0840    -2.8630 c3         1 108       0.029500
     14 CB           2.3720     0.5390    -2.8140 c3         1 108      -0.052100
     15 C            0.7250    -1.1800    -3.7380 c          1 108       0.720000
     16 O           -0.1490    -1.9920    -3.3670 o          1 108      -0.728000
     17 OXT          1.4260    -1.2640    -4.7620 o          1 108      -0.728000
     18 H2           1.3410     0.0050     1.1450 ha         1 108       0.153000
     19 H5          -3.3420     0.6810     2.4840 ha         1 108       0.116000
     20 H6          -1.7620    -0.2800     4.0780 ha         1 108       0.104000
     21 H71          0.7920     1.7410    -0.7460 h1         1 108       0.009200
     22 H72         -0.7880     1.6050    -1.4510 h1         1 108       0.009200
     23 HO1         -2.4890     1.6710    -0.7450 ho         1 108       0.477000
     24 HN11         1.3250    -0.9190     5.6600 hn         1 108       0.449500
     25 HN12         0.0380     0.1010     5.2970 hn         1 108       0.449500
     26 HN2          2.5830    -1.6530     3.9410 hn         1 108       0.356400
     27 H           -0.3520    -0.8140    -1.5980 hn         1 108       0.451000
     28 HA           0.3360     0.8790    -3.3680 h1         1 108      -0.003300
     29 HB1          3.0130    -0.2500    -2.4170 hc         1 108       0.015700
     30 HB2          2.7350     0.8080    -3.8040 hc         1 108       0.015700
     31 HB3          2.4900     1.4140    -2.1720 hc         1 108       0.015700
@<TRIPOS>BOND
     1     1     2 ar  
     2     1     6 ar  
     3     1     8 1   
     4     2     3 ar  
     5     2    18 1   
     6     3     4 ar  
     7     3     7 1   
     8     4     5 ar  
     9     4     9 1   
    10     5     6 ar  
    11     5    19 1   
    12     6    20 1   
    13     7    12 1   
    14     7    21 1   
    15     7    22 1   
    16     8    10 1   
    17     8    11 2   
    18     9    23 1   
    19    10    24 1   
    20    10    25 1   
    21    11    26 1   
    22    12    13 1   
    23    12    27 1   
    24    13    14 1   
    25    13    15 1   
    26    13    28 1   
    27    14    29 1   
    28    14    30 1   
    29    14    31 1   
    30    15    16 1   
    31    15    17 1   
@<TRIPOS>SUBSTRUCTURE
     1 108         1 TEMP              0 ****  ****    0 ROOT
