@<TRIPOS>MOLECULE
108
   31    31     1     0     0
SMALL
No Charge or Current Charge


@<TRIPOS>ATOM
      1 C1          -0.0230    -0.1840     2.8650 ca         1 108      -0.200900
      2 C2           0.4500     0.1820     1.5840 ca         1 108       0.005000
      3 C3          -0.4240     0.6680     0.5880 ca         1 108      -0.165300
      4 C4          -1.8020     0.7730     0.8760 ca         1 108       0.160100
      5 C5          -2.2850     0.3920     2.1350 ca         1 108      -0.172000
      6 C6          -1.4110    -0.0880     3.1230 ca         1 108      -0.069000
      7 C7           0.1620     1.0670    -0.7600 c3         1 108       0.222100
      8 C8           0.9290    -0.7200     3.8890 ce         1 108       0.662800
      9 O1          -2.6940     1.2310    -0.0510 oh         1 108      -0.548100
     10 N1           0.5530    -0.6830     5.1850 nv         1 108      -1.079200
     11 N2           2.1040    -1.1090     3.6110 n2         1 108      -0.812100
     12 N            0.3510    -0.1250    -1.6020 n7         1 108      -0.863400
     13 CA           0.8040     0.1150    -3.0170 c3         1 108       0.029500
     14 CB           2.2890     0.5720    -3.0350 c3         1 108      -0.052100
     15 C            0.5240    -1.1160    -3.9830 c          1 108       0.720000
     16 O           -0.6130    -1.5740    -3.9990 o          1 108      -0.728000
     17 OXT          1.4370    -1.5960    -4.6460 o          1 108      -0.728000
     18 H2           1.5100     0.0970     1.3530 ha         1 108       0.153000
     19 H5          -3.3490     0.4630     2.3470 ha         1 108       0.116000
     20 H6          -1.8250    -0.3930     4.0810 ha         1 108       0.104000
     21 H71          1.1220     1.5720    -0.5910 h1         1 108       0.009200
     22 H72         -0.4970     1.7880    -1.2610 h1         1 108       0.009200
     23 HO1         -2.2050     1.4450    -0.8720 ho         1 108       0.477000
     24 HN11         1.3050    -0.6260     5.8610 hn         1 108       0.449500
     25 HN12        -0.2540    -0.1040     5.3840 hn         1 108       0.449500
     26 HN2          2.4830    -1.5880     4.4350 hn         1 108       0.356400
     27 H           -0.5540    -0.6130    -1.6560 hn         1 108       0.451000
     28 HA           0.2100     0.9420    -3.4310 h1         1 108      -0.003300
     29 HB1          2.9430    -0.2040    -2.6210 hc         1 108       0.015700
     30 HB2          2.6130     0.7870    -4.0600 hc         1 108       0.015700
     31 HB3          2.4320     1.4900    -2.4520 hc         1 108       0.015700
@<TRIPOS>BOND
     1     1     2 ar  
     2     1     6 ar  
     3     1     8 1   
     4     2     3 ar  
     5     2    18 1   
     6     3     4 ar  
     7     3     7 1   
     8     4     5 ar  
     9     4     9 1   
    10     5     6 ar  
    11     5    19 1   
    12     6    20 1   
    13     7    12 1   
    14     7    21 1   
    15     7    22 1   
    16     8    10 1   
    17     8    11 2   
    18     9    23 1   
    19    10    24 1   
    20    10    25 1   
    21    11    26 1   
    22    12    13 1   
    23    12    27 1   
    24    13    14 1   
    25    13    15 1   
    26    13    28 1   
    27    14    29 1   
    28    14    30 1   
    29    14    31 1   
    30    15    16 1   
    31    15    17 1   
@<TRIPOS>SUBSTRUCTURE
     1 108         1 TEMP              0 ****  ****    0 ROOT
