@<TRIPOS>MOLECULE
109
   31    31     1     0     0
SMALL
No Charge or Current Charge


@<TRIPOS>ATOM
      1 C1           0.3980     0.0430     3.0500 ca         1 109      -0.133900
      2 C2          -0.7270    -0.6470     2.5360 ca         1 109      -0.168000
      3 C3          -1.1750    -0.4350     1.2200 ca         1 109       0.109100
      4 C4          -0.4960     0.4710     0.3760 ca         1 109      -0.064300
      5 C5           0.6360     1.1440     0.8700 ca         1 109      -0.072000
      6 C6           1.0820     0.9320     2.1860 ca         1 109      -0.132000
      7 C7          -0.9530     0.7380    -1.0570 c3         1 109       0.214100
      8 C8           0.8810    -0.2160     4.4530 ce         1 109       0.669800
      9 O1          -2.2710    -1.1220     0.7770 oh         1 109      -0.534100
     10 N1           1.6770     0.7050     5.0370 nv         1 109      -1.076200
     11 N2           0.5050    -1.2070     5.1530 n2         1 109      -0.843100
     12 N           -0.1550    -0.0520    -2.0200 n7         1 109      -0.875400
     13 CA          -0.5550     0.0540    -3.4680 c3         1 109       0.030500
     14 CB          -0.1740     1.4520    -4.0310 c3         1 109      -0.053100
     15 C           -0.0060    -1.1410    -4.3630 c          1 109       0.719000
     16 O           -0.3020    -2.2820    -4.0260 o          1 109      -0.730500
     17 OXT          0.7100    -0.9050    -5.3290 o          1 109      -0.730500
     18 H2          -1.2590    -1.3500     3.1730 ha         1 109       0.123000
     19 H5           1.1780     1.8330     0.2240 ha         1 109       0.153000
     20 H6           1.9730     1.4570     2.5200 ha         1 109       0.111000
     21 H71         -0.8460     1.8130    -1.2580 h1         1 109       0.033200
     22 H72         -2.0210     0.5020    -1.1590 h1         1 109       0.033200
     23 HO1         -2.5930    -1.6980     1.5020 ho         1 109       0.453000
     24 HN11         1.6210     0.7550     6.0470 hn         1 109       0.457000
     25 HN12         1.7160     1.5990     4.5620 hn         1 109       0.457000
     26 HN2          1.1160    -1.2620     5.9750 hn         1 109       0.356400
     27 H           -0.2730    -1.0390    -1.7510 hn         1 109       0.443000
     28 HA          -1.6490    -0.0260    -3.5290 h1         1 109       0.002700
     29 HB1          0.9090     1.6140    -3.9820 hc         1 109       0.015700
     30 HB2         -0.4890     1.5430    -5.0780 hc         1 109       0.015700
     31 HB3         -0.6680     2.2560    -3.4740 hc         1 109       0.015700
@<TRIPOS>BOND
     1     1     2 ar  
     2     1     6 ar  
     3     1     8 1   
     4     2     3 ar  
     5     2    18 1   
     6     3     4 ar  
     7     3     9 1   
     8     4     5 ar  
     9     4     7 1   
    10     5     6 ar  
    11     5    19 1   
    12     6    20 1   
    13     7    12 1   
    14     7    21 1   
    15     7    22 1   
    16     8    10 1   
    17     8    11 2   
    18     9    23 1   
    19    10    24 1   
    20    10    25 1   
    21    11    26 1   
    22    12    13 1   
    23    12    27 1   
    24    13    14 1   
    25    13    15 1   
    26    13    28 1   
    27    14    29 1   
    28    14    30 1   
    29    14    31 1   
    30    15    16 1   
    31    15    17 1   
@<TRIPOS>SUBSTRUCTURE
     1 109         1 TEMP              0 ****  ****    0 ROOT
