@<TRIPOS>MOLECULE
109
   31    31     1     0     0
SMALL
bcc


@<TRIPOS>ATOM
      1 C1           0.3390    -0.0240     3.0210 ca         1 109      -0.133900
      2 C2          -1.0110    -0.1590     2.7010 ca         1 109      -0.186000
      3 C3          -1.4310    -0.1250     1.3810 ca         1 109       0.109100
      4 C4          -0.5100     0.0320     0.3350 ca         1 109      -0.064300
      5 C5           0.8280     0.1650     0.6720 ca         1 109      -0.090000
      6 C6           1.2600     0.1360     1.9930 ca         1 109      -0.150000
      7 C7          -0.9940     0.0520    -1.0920 c3         1 109       0.214100
      8 C8           0.7500    -0.0720     4.4520 ce         1 109       0.669800
      9 O1          -2.7330    -0.2340     1.0410 oh         1 109      -0.495100
     10 N1           1.9670     0.4820     4.7270 nv         1 109      -0.965800
     11 N2          -0.0160    -0.6550     5.2940 n2         1 109      -0.843100
     12 N            0.0840     0.0890    -2.0490 n7         1 109      -0.820200
     13 CA          -0.3610     0.1660    -3.4300 c3         1 109       0.030500
     14 CB          -0.6960     1.5990    -3.8160 c3         1 109      -0.053100
     15 C            0.6980    -0.4620    -4.3720 c          1 109       0.929600
     16 O            1.5270    -1.2380    -3.8530 o          1 109      -0.835800
     17 OXT          0.6100    -0.1730    -5.5790 o          1 109      -0.835800
     18 H2          -1.7350    -0.2810     3.4980 ha         1 109       0.141000
     19 H5           1.5570     0.2930    -0.1170 ha         1 109       0.171000
     20 H6           2.3190     0.2190     2.1980 ha         1 109       0.129000
     21 H71         -1.6220     0.9390    -1.2280 h1         1 109       0.033200
     22 H72         -1.6710    -0.8040    -1.2520 h1         1 109       0.033200
     23 HO1         -3.2750    -0.3660     1.8260 ho         1 109       0.414000
     24 HN11         2.2170     0.5890     5.6980 hn         1 109       0.401800
     25 HN12         2.2980     1.2310     4.1420 hn         1 109       0.401800
     26 HN2          0.3610    -0.5910     6.2360 hn         1 109       0.356400
     27 H            0.6520    -0.7470    -1.9690 hn         1 109       0.387800
     28 HA          -1.2750    -0.4420    -3.5780 h1         1 109       0.002700
     29 HB1          0.1860     2.2390    -3.7400 hc         1 109       0.015700
     30 HB2         -1.0670     1.6520    -4.8380 hc         1 109       0.015700
     31 HB3         -1.4670     2.0190    -3.1670 hc         1 109       0.015700
@<TRIPOS>BOND
     1     1     2 ar  
     2     1     6 ar  
     3     1     8 1   
     4     2     3 ar  
     5     2    18 1   
     6     3     4 ar  
     7     3     9 1   
     8     4     5 ar  
     9     4     7 1   
    10     5     6 ar  
    11     5    19 1   
    12     6    20 1   
    13     7    12 1   
    14     7    21 1   
    15     7    22 1   
    16     8    10 1   
    17     8    11 2   
    18     9    23 1   
    19    10    24 1   
    20    10    25 1   
    21    11    26 1   
    22    12    13 1   
    23    12    27 1   
    24    13    14 1   
    25    13    15 1   
    26    13    28 1   
    27    14    29 1   
    28    14    30 1   
    29    14    31 1   
    30    15    16 1   
    31    15    17 1   
@<TRIPOS>SUBSTRUCTURE
     1 109         1 TEMP              0 ****  ****    0 ROOT
