@<TRIPOS>MOLECULE
10A
   71    70     1     0     0
SMALL
No Charge or Current Charge


@<TRIPOS>ATOM
      1 C1          12.8260     0.6220     0.0260 c3         1 10A      -0.089600
      2 C2          11.4330     1.2800     0.0450 c3         1 10A      -0.074400
      3 C3          10.2790     0.2540     0.0120 c3         1 10A      -0.075400
      4 C4           8.8830     0.9140     0.0320 c3         1 10A      -0.074400
      5 C5           7.7290    -0.1120    -0.0020 c3         1 10A      -0.074400
      6 C6           6.3330     0.5480     0.0180 c3         1 10A      -0.073400
      7 C7           5.1790    -0.4790    -0.0160 c3         1 10A      -0.074900
      8 C8           3.7830     0.1810     0.0050 c3         1 10A      -0.074400
      9 C9           2.6320    -0.8450    -0.0290 c3         1 10A      -0.099900
     10 C10          1.2440    -0.1690    -0.0080 c3         1 10A       0.099100
     11 N1           0.0010    -1.0740    -0.0370 n4         1 10A      -0.501000
     12 C11          0.0010    -1.9200    -1.3220 c3         1 10A       0.074900
     13 C12          0.0000    -2.0010     1.1900 c3         1 10A       0.074900
     14 C13         -1.2420    -0.1680    -0.0080 c3         1 10A       0.099100
     15 C14         -2.6300    -0.8430    -0.0310 c3         1 10A      -0.099900
     16 C15         -3.7800     0.1840     0.0020 c3         1 10A      -0.074400
     17 C16         -5.1770    -0.4740    -0.0190 c3         1 10A      -0.074900
     18 C17         -6.3300     0.5530     0.0140 c3         1 10A      -0.073400
     19 C18         -7.7270    -0.1050    -0.0080 c3         1 10A      -0.074400
     20 C19         -8.8800     0.9220     0.0250 c3         1 10A      -0.074400
     21 C20        -10.2760     0.2630     0.0050 c3         1 10A      -0.075400
     22 C21        -11.4300     1.2900     0.0380 c3         1 10A      -0.074400
     23 C22        -12.8230     0.6330     0.0170 c3         1 10A      -0.089600
     24 H11         13.6110     1.3870     0.0510 hc         1 10A       0.035033
     25 H12         12.9590    -0.0330     0.8950 hc         1 10A       0.035033
     26 H13         12.9600     0.0230    -0.8830 hc         1 10A       0.035033
     27 H21         11.3440     1.8980     0.9470 hc         1 10A       0.038200
     28 H22         11.3460     1.9550    -0.8150 hc         1 10A       0.038200
     29 H31         10.3730    -0.3630    -0.8900 hc         1 10A       0.038700
     30 H32         10.3720    -0.4200     0.8730 hc         1 10A       0.038700
     31 H41          8.7890     1.5320     0.9340 hc         1 10A       0.039700
     32 H42          8.7910     1.5880    -0.8290 hc         1 10A       0.039700
     33 H51          7.8230    -0.7300    -0.9040 hc         1 10A       0.039700
     34 H52          7.8220    -0.7860     0.8590 hc         1 10A       0.039700
     35 H61          6.2390     1.1650     0.9200 hc         1 10A       0.043200
     36 H62          6.2410     1.2220    -0.8430 hc         1 10A       0.043200
     37 H71          5.2730    -1.0960    -0.9180 hc         1 10A       0.043950
     38 H72          5.2720    -1.1530     0.8450 hc         1 10A       0.043950
     39 H81          3.6890     0.7990     0.9070 hc         1 10A       0.051450
     40 H82          3.6900     0.8550    -0.8560 hc         1 10A       0.051450
     41 H91          2.7270    -1.4600    -0.9320 hc         1 10A       0.062450
     42 H92          2.7260    -1.5170     0.8330 hc         1 10A       0.062450
     43 H101         1.1760     0.4450     0.8940 hx         1 10A       0.091450
     44 H102         1.1770     0.5010    -0.8680 hx         1 10A       0.091450
     45 H111         0.8910    -2.5510    -1.3390 hx         1 10A       0.095200
     46 H112        -0.8900    -2.5510    -1.3400 hx         1 10A       0.095200
     47 H113         0.0020    -1.2580    -2.1900 hx         1 10A       0.095200
     48 H121         0.0000    -1.3960     2.0990 hx         1 10A       0.095200
     49 H122        -0.8910    -2.6310     1.1670 hx         1 10A       0.095200
     50 H123         0.8900    -2.6320     1.1680 hx         1 10A       0.095200
     51 H131        -1.1740     0.4460     0.8930 hx         1 10A       0.091450
     52 H132        -1.1730     0.5020    -0.8690 hx         1 10A       0.091450
     53 H141        -2.7240    -1.4580    -0.9330 hc         1 10A       0.062450
     54 H142        -2.7250    -1.5140     0.8310 hc         1 10A       0.062450
     55 H151        -3.6860     0.8020     0.9040 hc         1 10A       0.051450
     56 H152        -3.6860     0.8580    -0.8590 hc         1 10A       0.051450
     57 H161        -5.2710    -1.0920    -0.9210 hc         1 10A       0.043950
     58 H162        -5.2710    -1.1490     0.8410 hc         1 10A       0.043950
     59 H171        -6.2360     1.1710     0.9160 hc         1 10A       0.043200
     60 H172        -6.2360     1.2270    -0.8470 hc         1 10A       0.043200
     61 H181        -7.8200    -0.7230    -0.9100 hc         1 10A       0.039700
     62 H182        -7.8200    -0.7800     0.8530 hc         1 10A       0.039700
     63 H191        -8.7860     1.5390     0.9280 hc         1 10A       0.039700
     64 H192        -8.7860     1.5960    -0.8350 hc         1 10A       0.039700
     65 H201       -10.3700    -0.3550    -0.8980 hc         1 10A       0.038700
     66 H202       -10.3700    -0.4110     0.8650 hc         1 10A       0.038700
     67 H211       -11.3400     1.9080     0.9390 hc         1 10A       0.038200
     68 H212       -11.3410     1.9640    -0.8230 hc         1 10A       0.038200
     69 H221       -13.6070     1.3990     0.0410 hc         1 10A       0.035033
     70 H222       -12.9570     0.0350    -0.8920 hc         1 10A       0.035033
     71 H223       -12.9570    -0.0220     0.8860 hc         1 10A       0.035033
@<TRIPOS>BOND
     1     1     2 1   
     2     1    24 1   
     3     1    25 1   
     4     1    26 1   
     5     2     3 1   
     6     2    27 1   
     7     2    28 1   
     8     3     4 1   
     9     3    29 1   
    10     3    30 1   
    11     4     5 1   
    12     4    31 1   
    13     4    32 1   
    14     5     6 1   
    15     5    33 1   
    16     5    34 1   
    17     6     7 1   
    18     6    35 1   
    19     6    36 1   
    20     7     8 1   
    21     7    37 1   
    22     7    38 1   
    23     8     9 1   
    24     8    39 1   
    25     8    40 1   
    26     9    10 1   
    27     9    41 1   
    28     9    42 1   
    29    10    11 1   
    30    10    43 1   
    31    10    44 1   
    32    11    12 1   
    33    11    13 1   
    34    11    14 1   
    35    12    45 1   
    36    12    46 1   
    37    12    47 1   
    38    13    48 1   
    39    13    49 1   
    40    13    50 1   
    41    14    15 1   
    42    14    51 1   
    43    14    52 1   
    44    15    16 1   
    45    15    53 1   
    46    15    54 1   
    47    16    17 1   
    48    16    55 1   
    49    16    56 1   
    50    17    18 1   
    51    17    57 1   
    52    17    58 1   
    53    18    19 1   
    54    18    59 1   
    55    18    60 1   
    56    19    20 1   
    57    19    61 1   
    58    19    62 1   
    59    20    21 1   
    60    20    63 1   
    61    20    64 1   
    62    21    22 1   
    63    21    65 1   
    64    21    66 1   
    65    22    23 1   
    66    22    67 1   
    67    22    68 1   
    68    23    69 1   
    69    23    70 1   
    70    23    71 1   
@<TRIPOS>SUBSTRUCTURE
     1 10A         1 TEMP              0 ****  ****    0 ROOT
