@<TRIPOS>MOLECULE
10A
   71    70     1     0     0
SMALL
abcg2


@<TRIPOS>ATOM
      1 C1          12.6110     0.4690     0.2600 c3         1 10A      -0.089600
      2 C2          11.2640     1.1720     0.1550 c3         1 10A      -0.074400
      3 C3          10.0920     0.2000     0.1410 c3         1 10A      -0.075400
      4 C4           8.7340     0.8850     0.0430 c3         1 10A      -0.074400
      5 C5           7.5710    -0.0980     0.0260 c3         1 10A      -0.074400
      6 C6           6.2060     0.5760    -0.0520 c3         1 10A      -0.073400
      7 C7           5.0570    -0.4230    -0.0670 c3         1 10A      -0.074900
      8 C8           3.6840     0.2350    -0.1150 c3         1 10A      -0.074400
      9 C9           2.5600    -0.7980    -0.1280 c3         1 10A      -0.099900
     10 C10          1.2130    -0.1000    -0.1360 c3         1 10A       0.099100
     11 N1           0.0000    -1.0010    -0.1430 n4         1 10A      -0.501000
     12 C11          0.0000    -1.8520    -1.3640 c3         1 10A       0.074900
     13 C12         -0.0030    -1.8700     1.0650 c3         1 10A       0.074900
     14 C13         -1.2090    -0.0950    -0.1380 c3         1 10A       0.099100
     15 C14         -2.5580    -0.7900    -0.1270 c3         1 10A      -0.099900
     16 C15         -3.6800     0.2450    -0.1190 c3         1 10A      -0.074400
     17 C16         -5.0530    -0.4120    -0.0700 c3         1 10A      -0.074900
     18 C17         -6.2030     0.5870    -0.0560 c3         1 10A      -0.073400
     19 C18         -7.5670    -0.0870     0.0210 c3         1 10A      -0.074400
     20 C19         -8.7320     0.8950     0.0380 c3         1 10A      -0.074400
     21 C20        -10.0880     0.2080     0.1330 c3         1 10A      -0.075400
     22 C21        -11.2620     1.1790     0.1460 c3         1 10A      -0.074400
     23 C22        -12.6070     0.4720     0.2510 c3         1 10A      -0.089600
     24 H11         13.4380     1.1790     0.2660 hc         1 10A       0.035033
     25 H12         12.6750    -0.1210     1.1760 hc         1 10A       0.035033
     26 H13         12.7660    -0.2130    -0.5800 hc         1 10A       0.035033
     27 H21         11.1480     1.8670     0.9930 hc         1 10A       0.038200
     28 H22         11.2380     1.7850    -0.7520 hc         1 10A       0.038200
     29 H31         10.2090    -0.4950    -0.6990 hc         1 10A       0.038700
     30 H32         10.1220    -0.4160     1.0460 hc         1 10A       0.038700
     31 H41          8.6150     1.5760     0.8850 hc         1 10A       0.039700
     32 H42          8.7020     1.5040    -0.8610 hc         1 10A       0.039700
     33 H51          7.6870    -0.7810    -0.8230 hc         1 10A       0.039700
     34 H52          7.6140    -0.7240     0.9240 hc         1 10A       0.039700
     35 H61          6.0870     1.2550     0.7990 hc         1 10A       0.043200
     36 H62          6.1570     1.2020    -0.9500 hc         1 10A       0.043200
     37 H71          5.1690    -1.0930    -0.9260 hc         1 10A       0.043950
     38 H72          5.1200    -1.0600     0.8230 hc         1 10A       0.043950
     39 H81          3.5650     0.8960     0.7490 hc         1 10A       0.051450
     40 H82          3.6100     0.8710    -1.0030 hc         1 10A       0.051450
     41 H91          2.6770    -1.4350    -1.0070 hc         1 10A       0.062450
     42 H92          2.6630    -1.4380     0.7500 hc         1 10A       0.062450
     43 H101         1.1110     0.5330     0.7470 hx         1 10A       0.091450
     44 H102         1.1200     0.5360    -1.0160 hx         1 10A       0.091450
     45 H111         0.8810    -2.4860    -1.3630 hx         1 10A       0.095200
     46 H112        -0.8830    -2.4820    -1.3660 hx         1 10A       0.095200
     47 H113         0.0030    -1.2140    -2.2440 hx         1 10A       0.095200
     48 H121        -0.0000    -1.2440     1.9550 hx         1 10A       0.095200
     49 H122        -0.8870    -2.4990     1.0580 hx         1 10A       0.095200
     50 H123         0.8770    -2.5050     1.0570 hx         1 10A       0.095200
     51 H131        -1.1060     0.5400     0.7430 hx         1 10A       0.091450
     52 H132        -1.1140     0.5390    -1.0210 hx         1 10A       0.091450
     53 H141        -2.6750    -1.4310    -1.0030 hc         1 10A       0.062450
     54 H142        -2.6610    -1.4250     0.7540 hc         1 10A       0.062450
     55 H151        -3.5620     0.9080     0.7440 hc         1 10A       0.051450
     56 H152        -3.6040     0.8790    -1.0080 hc         1 10A       0.051450
     57 H161        -5.1660    -1.0820    -0.9290 hc         1 10A       0.043950
     58 H162        -5.1170    -1.0490     0.8200 hc         1 10A       0.043950
     59 H171        -6.0840     1.2650     0.7960 hc         1 10A       0.043200
     60 H172        -6.1540     1.2140    -0.9530 hc         1 10A       0.043200
     61 H181        -7.6820    -0.7700    -0.8280 hc         1 10A       0.039700
     62 H182        -7.6110    -0.7140     0.9190 hc         1 10A       0.039700
     63 H191        -8.6130     1.5840     0.8820 hc         1 10A       0.039700
     64 H192        -8.6980     1.5150    -0.8650 hc         1 10A       0.039700
     65 H201       -10.2030    -0.4860    -0.7070 hc         1 10A       0.038700
     66 H202       -10.1190    -0.4080     1.0390 hc         1 10A       0.038700
     67 H211       -11.1470     1.8740     0.9830 hc         1 10A       0.038200
     68 H212       -11.2370     1.7900    -0.7620 hc         1 10A       0.038200
     69 H221       -13.4370     1.1810     0.2540 hc         1 10A       0.035033
     70 H222       -12.7600    -0.2110    -0.5870 hc         1 10A       0.035033
     71 H223       -12.6700    -0.1160     1.1690 hc         1 10A       0.035033
@<TRIPOS>BOND
     1     1     2 1   
     2     1    24 1   
     3     1    25 1   
     4     1    26 1   
     5     2     3 1   
     6     2    27 1   
     7     2    28 1   
     8     3     4 1   
     9     3    29 1   
    10     3    30 1   
    11     4     5 1   
    12     4    31 1   
    13     4    32 1   
    14     5     6 1   
    15     5    33 1   
    16     5    34 1   
    17     6     7 1   
    18     6    35 1   
    19     6    36 1   
    20     7     8 1   
    21     7    37 1   
    22     7    38 1   
    23     8     9 1   
    24     8    39 1   
    25     8    40 1   
    26     9    10 1   
    27     9    41 1   
    28     9    42 1   
    29    10    11 1   
    30    10    43 1   
    31    10    44 1   
    32    11    12 1   
    33    11    13 1   
    34    11    14 1   
    35    12    45 1   
    36    12    46 1   
    37    12    47 1   
    38    13    48 1   
    39    13    49 1   
    40    13    50 1   
    41    14    15 1   
    42    14    51 1   
    43    14    52 1   
    44    15    16 1   
    45    15    53 1   
    46    15    54 1   
    47    16    17 1   
    48    16    55 1   
    49    16    56 1   
    50    17    18 1   
    51    17    57 1   
    52    17    58 1   
    53    18    19 1   
    54    18    59 1   
    55    18    60 1   
    56    19    20 1   
    57    19    61 1   
    58    19    62 1   
    59    20    21 1   
    60    20    63 1   
    61    20    64 1   
    62    21    22 1   
    63    21    65 1   
    64    21    66 1   
    65    22    23 1   
    66    22    67 1   
    67    22    68 1   
    68    23    69 1   
    69    23    70 1   
    70    23    71 1   
@<TRIPOS>SUBSTRUCTURE
     1 10A         1 TEMP              0 ****  ****    0 ROOT
