@<TRIPOS>MOLECULE
10B
   45    46     1     0     0
SMALL
abcg2


@<TRIPOS>ATOM
      1 O14         13.4730     6.9040     6.8450 o          1 10B      -0.530500
      2 S13         12.3810     6.1090     7.3530 sy         1 10B       1.160600
      3 O13         12.6920     4.7610     7.7960 o          1 10B      -0.530500
      4 N12         11.1850     6.0350     6.1890 n3         1 10B      -0.543000
      5 O15         11.5760     6.6150     4.9710 os         1 10B      -0.197300
      6 C67         10.5890     7.5990     4.5040 c3         1 10B       0.148300
      7 C69         10.8800     8.9690     5.0810 c3         1 10B      -0.102600
      8 C68         10.6070     7.5300     2.9990 c3         1 10B      -0.102600
      9 C31         10.3850     4.8160     6.0130 c3         1 10B       0.134800
     10 C11          9.0310     4.9550     6.6910 c          1 10B       0.548100
     11 O2           8.1070     5.6210     6.2100 o          1 10B      -0.605100
     12 N2           8.9390     4.4550     7.9290 ns         1 10B      -0.355400
     13 O7           7.7170     4.4680     8.5630 oh         1 10B      -0.438100
     14 C28         11.6450     6.9670     8.7420 ca         1 10B      -0.259500
     15 C14         11.2040     6.2040     9.8220 ca         1 10B      -0.012500
     16 C17         10.6560     6.8760    10.9080 ca         1 10B      -0.117500
     17 C16         10.6510     8.2710    10.9730 cp         1 10B       0.031000
     18 C15         11.1430     9.0150     9.8950 ca         1 10B      -0.117500
     19 C29         11.6910     8.3490     8.8040 ca         1 10B      -0.012500
     20 C21         10.0960     8.9650    12.1660 cp         1 10B      -0.056000
     21 C26          9.3470    10.1390    12.0320 ca         1 10B      -0.093000
     22 C25          8.8600    10.7930    13.1600 ca         1 10B      -0.110000
     23 C24          9.1270    10.2840    14.4240 ca         1 10B      -0.098000
     24 C23          9.9010     9.1370    14.5810 ca         1 10B      -0.110000
     25 C30         10.3230     8.4520    13.4460 ca         1 10B      -0.093000
     26 H1           9.6320     7.2640     4.9130 h1         1 10B       0.075700
     27 H2          10.7400     9.0560     6.1530 hc         1 10B       0.047200
     28 H3          11.8860     9.2910     4.7860 hc         1 10B       0.047200
     29 H4          10.2290     9.6840     4.5660 hc         1 10B       0.047200
     30 H5          10.4850     6.4970     2.6710 hc         1 10B       0.047200
     31 H6           9.8570     8.1730     2.5450 hc         1 10B       0.047200
     32 H7          11.6010     7.8360     2.6510 hc         1 10B       0.047200
     33 H8          10.2390     4.6260     4.9550 h1         1 10B       0.088700
     34 H9          10.9250     3.9910     6.4860 h1         1 10B       0.088700
     35 H10          9.6130     3.7880     8.2740 hn         1 10B       0.356500
     36 H11          7.1720     5.0380     7.9840 ho         1 10B       0.480000
     37 H12         11.1530     5.1290     9.7470 ha         1 10B       0.132500
     38 H13         10.3710     6.2610    11.7540 ha         1 10B       0.124000
     39 H14         11.1650    10.0940     9.8970 ha         1 10B       0.124000
     40 H15         12.1120     8.9170     7.9800 ha         1 10B       0.132500
     41 H16          9.1400    10.5170    11.0400 ha         1 10B       0.115000
     42 H17          8.3330    11.7290    13.0270 ha         1 10B       0.118000
     43 H18          8.7460    10.7930    15.3030 ha         1 10B       0.113000
     44 H19         10.1130     8.7270    15.5590 ha         1 10B       0.118000
     45 H20         10.9430     7.5700    13.5730 ha         1 10B       0.115000
@<TRIPOS>BOND
     1     1     2 2   
     2     2     3 2   
     3     2     4 1   
     4     2    14 1   
     5     4     5 1   
     6     4     9 1   
     7     5     6 1   
     8     6     7 1   
     9     6     8 1   
    10     6    26 1   
    11     7    27 1   
    12     7    28 1   
    13     7    29 1   
    14     8    30 1   
    15     8    31 1   
    16     8    32 1   
    17     9    10 1   
    18     9    33 1   
    19     9    34 1   
    20    10    11 2   
    21    10    12 1   
    22    12    13 1   
    23    12    35 1   
    24    13    36 1   
    25    14    15 ar  
    26    14    19 ar  
    27    15    16 ar  
    28    15    37 1   
    29    16    17 ar  
    30    16    38 1   
    31    17    18 ar  
    32    17    20 1   
    33    18    19 ar  
    34    18    39 1   
    35    19    40 1   
    36    20    21 ar  
    37    20    25 ar  
    38    21    22 ar  
    39    21    41 1   
    40    22    23 ar  
    41    22    42 1   
    42    23    24 ar  
    43    23    43 1   
    44    24    25 ar  
    45    24    44 1   
    46    25    45 1   
@<TRIPOS>SUBSTRUCTURE
     1 10B         1 TEMP              0 ****  ****    0 ROOT
