@<TRIPOS>MOLECULE
10B
   45    46     1     0     0
SMALL
No Charge or Current Charge


@<TRIPOS>ATOM
      1 O14         13.2320     7.0130     6.7710 o          1 10B      -0.530500
      2 S13         12.0870     6.2090     7.2140 sy         1 10B       1.160600
      3 O13         12.2040     4.7570     7.4070 o          1 10B      -0.530500
      4 N12         10.8240     6.4850     6.0720 n3         1 10B      -0.543000
      5 O15         11.3300     6.3640     4.6830 os         1 10B      -0.197300
      6 C67         11.0170     7.5370     3.9010 c3         1 10B       0.148300
      7 C69         11.9450     8.7010     4.3170 c3         1 10B      -0.102600
      8 C68         11.2000     7.1450     2.4230 c3         1 10B      -0.102600
      9 C31          9.6550     5.5570     6.1570 c3         1 10B       0.134800
     10 C11          8.8630     5.5110     7.4890 c          1 10B       0.548100
     11 O2           8.0600     6.3740     7.8280 o          1 10B      -0.605100
     12 N2           9.0980     4.4080     8.3010 ns         1 10B      -0.355400
     13 O7           8.5270     4.3510     9.6280 oh         1 10B      -0.438100
     14 C28         11.4440     6.9820     8.7100 ca         1 10B      -0.259500
     15 C14         11.3740     6.2600     9.9180 ca         1 10B      -0.012500
     16 C17         10.8670     6.8740    11.0750 ca         1 10B      -0.117500
     17 C16         10.4210     8.2190    11.0600 cp         1 10B       0.031000
     18 C15         10.5070     8.9290     9.8370 ca         1 10B      -0.117500
     19 C29         11.0140     8.3220     8.6750 ca         1 10B      -0.012500
     20 C21          9.8790     8.8700    12.2960 cp         1 10B      -0.056000
     21 C26          8.8230     9.8150    12.2240 ca         1 10B      -0.093000
     22 C25          8.3130    10.4250    13.3840 ca         1 10B      -0.110000
     23 C24          8.8480    10.1030    14.6410 ca         1 10B      -0.098000
     24 C23          9.8930     9.1710    14.7380 ca         1 10B      -0.110000
     25 C30         10.4020     8.5610    13.5780 ca         1 10B      -0.093000
     26 H1           9.9700     7.8350     4.0540 h1         1 10B       0.075700
     27 H2          11.7400     9.0180     5.3450 hc         1 10B       0.047200
     28 H3          12.9980     8.4060     4.2430 hc         1 10B       0.047200
     29 H4          11.7860     9.5670     3.6640 hc         1 10B       0.047200
     30 H5          10.5340     6.3150     2.1610 hc         1 10B       0.047200
     31 H6          10.9610     7.9920     1.7680 hc         1 10B       0.047200
     32 H7          12.2340     6.8380     2.2260 hc         1 10B       0.047200
     33 H8           8.9210     5.8270     5.3870 h1         1 10B       0.088700
     34 H9           9.9720     4.5320     5.9280 h1         1 10B       0.088700
     35 H10          9.8810     3.7820     8.1130 hn         1 10B       0.356500
     36 H11          8.1880     5.2720     9.7510 ho         1 10B       0.480000
     37 H12         11.7060     5.2240     9.9670 ha         1 10B       0.132500
     38 H13         10.8070     6.2930    11.9920 ha         1 10B       0.124000
     39 H14         10.1900     9.9670     9.7880 ha         1 10B       0.124000
     40 H15         11.0680     8.8940     7.7510 ha         1 10B       0.132500
     41 H16          8.3850    10.0690    11.2620 ha         1 10B       0.115000
     42 H17          7.5020    11.1450    13.3070 ha         1 10B       0.118000
     43 H18          8.4540    10.5760    15.5390 ha         1 10B       0.113000
     44 H19         10.3120     8.9220    15.7110 ha         1 10B       0.118000
     45 H20         11.2210     7.8520    13.6750 ha         1 10B       0.115000
@<TRIPOS>BOND
     1     1     2 2   
     2     2     3 2   
     3     2     4 1   
     4     2    14 1   
     5     4     5 1   
     6     4     9 1   
     7     5     6 1   
     8     6     7 1   
     9     6     8 1   
    10     6    26 1   
    11     7    27 1   
    12     7    28 1   
    13     7    29 1   
    14     8    30 1   
    15     8    31 1   
    16     8    32 1   
    17     9    10 1   
    18     9    33 1   
    19     9    34 1   
    20    10    11 2   
    21    10    12 1   
    22    12    13 1   
    23    12    35 1   
    24    13    36 1   
    25    14    15 ar  
    26    14    19 ar  
    27    15    16 ar  
    28    15    37 1   
    29    16    17 ar  
    30    16    38 1   
    31    17    18 ar  
    32    17    20 1   
    33    18    19 ar  
    34    18    39 1   
    35    19    40 1   
    36    20    21 ar  
    37    20    25 ar  
    38    21    22 ar  
    39    21    41 1   
    40    22    23 ar  
    41    22    42 1   
    42    23    24 ar  
    43    23    43 1   
    44    24    25 ar  
    45    24    44 1   
    46    25    45 1   
@<TRIPOS>SUBSTRUCTURE
     1 10B         1 TEMP              0 ****  ****    0 ROOT
