@<TRIPOS>MOLECULE
10F
   61    63     1     0     0
SMALL
abcg2


@<TRIPOS>ATOM
      1 N1           6.7570    -1.6420     0.2920 n7         1 10F      -0.817400
      2 C2           7.6860    -1.0390    -0.6400 c6         1 10F       0.643900
      3 NA2          8.5400    -2.0720    -1.1830 n8         1 10F      -0.967200
      4 N3           6.9200    -0.4560    -1.7260 n7         1 10F      -0.867400
      5 C4           6.0150     0.6000    -1.2940 c6         1 10F       0.415500
      6 O4           5.2600     1.0560    -2.3750 oh         1 10F      -0.603000
      7 C4A          5.0790     0.0220    -0.2430 c6         1 10F       0.166500
      8 N5           4.1690     1.0220     0.2810 n7         1 10F      -0.819400
      9 C6           3.3220     0.4550     1.3180 c6         1 10F       0.124500
     10 C7           4.1220    -0.2280     2.4220 c6         1 10F       0.125800
     11 N8           4.9980    -1.2260     1.8290 n7         1 10F      -0.833400
     12 C8A          5.9020    -0.6290     0.8690 c6         1 10F       0.367700
     13 C9           2.4100     1.5340     1.8860 c3         1 10F       0.120000
     14 N10          1.4920     2.0620     0.8910 n          1 10F      -0.232400
     15 C11         -1.9140    -0.2260    -0.0250 ca         1 10F      -0.100600
     16 C12         -1.8490     0.5060     1.1560 ca         1 10F      -0.073000
     17 C13         -0.7270     1.2660     1.4520 ca         1 10F      -0.123000
     18 C14          0.3430     1.2960     0.5690 ca         1 10F      -0.086000
     19 C15          0.2940     0.5510    -0.6040 ca         1 10F      -0.123000
     20 C16         -0.8250    -0.2110    -0.8930 ca         1 10F      -0.073000
     21 N           -4.2880    -0.5870     0.0030 ns         1 10F      -0.419900
     22 CA          -5.5050    -1.3650    -0.0400 c3         1 10F      -0.048300
     23 CB          -6.7140    -0.4300     0.0260 c3         1 10F      -0.055400
     24 CG          -6.7710     0.5600    -1.1260 c3         1 10F      -0.203400
     25 CD          -7.9780     1.5150    -1.1290 c          1 10F       0.712000
     26 OE1         -8.0270     2.3280    -2.0780 o          1 10F      -0.761000
     27 OE2         -8.8060     1.4160    -0.2020 o          1 10F      -0.761000
     28 CT          -5.5570    -2.4290     1.0890 c          1 10F       0.718000
     29 O2          -4.6780    -2.3860     1.9670 o          1 10F      -0.743000
     30 O1          -6.5080    -3.2320     1.0090 o          1 10F      -0.743000
     31 C18          1.8390     3.1220     0.1330 c          1 10F       0.617900
     32 O5           1.1970     3.5540    -0.8040 o          1 10F      -0.580100
     33 O           -2.9610    -2.1140    -1.0040 o          1 10F      -0.642100
     34 HN1          7.2910    -2.0830     1.0350 hn         1 10F       0.406000
     35 H2           8.2780    -0.2510    -0.1240 h3         1 10F      -0.061300
     36 HNA2         9.2320    -1.6410    -1.7860 hn         1 10F       0.391500
     37 HNAA         9.0770    -2.4820    -0.4280 hn         1 10F       0.391500
     38 HN3          7.5760    -0.0610    -2.3930 hn         1 10F       0.404000
     39 H4           6.5700     1.4430    -0.8400 h2         1 10F      -0.019300
     40 HO4          5.7970     1.6640    -2.8930 ho         1 10F       0.434000
     41 H4A          4.4810    -0.7670    -0.7150 h1         1 10F       0.136700
     42 HN5          4.7090     1.7870     0.6790 hn         1 10F       0.382000
     43 H6           2.7010    -0.3150     0.8420 h1         1 10F       0.114700
     44 H7           4.6730     0.5380     2.9920 h1         1 10F       0.035700
     45 H7A          3.4460    -0.7270     3.1210 h1         1 10F       0.035700
     46 HN8          5.5350    -1.6700     2.5650 hn         1 10F       0.405000
     47 H8A          6.5070     0.1780     1.3430 h2         1 10F      -0.034300
     48 H9           1.8340     1.1350     2.7210 h1         1 10F       0.046700
     49 H9A          3.0050     2.3600     2.2840 h1         1 10F       0.046700
     50 H12         -2.6630     0.4760     1.8690 ha         1 10F       0.136500
     51 H13         -0.6850     1.8340     2.3720 ha         1 10F       0.108500
     52 H15          1.1390     0.5600    -1.2810 ha         1 10F       0.108500
     53 H16         -0.8520    -0.7970    -1.8020 ha         1 10F       0.136500
     54 HN          -4.3070     0.2610     0.5470 hn         1 10F       0.297500
     55 HA          -5.5330    -1.8930    -0.9980 h1         1 10F       0.057700
     56 HB          -7.6110    -1.0490     0.0310 hc         1 10F       0.050200
     57 HBA         -6.7070     0.1040     0.9820 hc         1 10F       0.050200
     58 HG          -5.8630     1.1710    -1.1480 hc         1 10F       0.012200
     59 HGA         -6.7630     0.0120    -2.0760 hc         1 10F       0.012200
     60 H18          2.7710     3.5930     0.4780 h5         1 10F      -0.019800
     61 C17         -3.1000    -1.0710    -0.3730 c          1 10F       0.600700
@<TRIPOS>BOND
     1     1     2 1   
     2     1    12 1   
     3     1    34 1   
     4     2     3 1   
     5     2     4 1   
     6     2    35 1   
     7     3    36 1   
     8     3    37 1   
     9     4     5 1   
    10     4    38 1   
    11     5     6 1   
    12     5     7 1   
    13     5    39 1   
    14     6    40 1   
    15     7     8 1   
    16     7    12 1   
    17     7    41 1   
    18     8     9 1   
    19     8    42 1   
    20     9    10 1   
    21     9    13 1   
    22     9    43 1   
    23    10    11 1   
    24    10    44 1   
    25    10    45 1   
    26    11    12 1   
    27    11    46 1   
    28    12    47 1   
    29    13    14 1   
    30    13    48 1   
    31    13    49 1   
    32    14    18 1   
    33    14    31 1   
    34    15    16 ar  
    35    15    20 ar  
    36    15    61 1   
    37    16    17 ar  
    38    16    50 1   
    39    17    18 ar  
    40    17    51 1   
    41    18    19 ar  
    42    19    20 ar  
    43    19    52 1   
    44    20    53 1   
    45    21    22 1   
    46    21    54 1   
    47    21    61 1   
    48    22    23 1   
    49    22    28 1   
    50    22    55 1   
    51    23    24 1   
    52    23    56 1   
    53    23    57 1   
    54    24    25 1   
    55    24    58 1   
    56    24    59 1   
    57    25    26 1   
    58    25    27 1   
    59    28    29 1   
    60    28    30 1   
    61    31    32 2   
    62    31    60 1   
    63    33    61 2   
@<TRIPOS>SUBSTRUCTURE
     1 10F         1 TEMP              0 ****  ****    0 ROOT
