@<TRIPOS>MOLECULE
10F
   61    63     1     0     0
SMALL
No Charge or Current Charge


@<TRIPOS>ATOM
      1 N1           7.0090    -1.6750     0.6820 n7         1 10F      -0.817400
      2 C2           7.9860    -1.1850    -0.2180 c6         1 10F       0.643900
      3 NA2          8.5470    -2.3450    -0.6890 n8         1 10F      -0.967200
      4 N3           7.4170    -0.6820    -1.4060 n7         1 10F      -0.867400
      5 C4           6.5140     0.4220    -1.1210 c6         1 10F       0.415500
      6 O4           6.0020     0.8380    -2.3700 oh         1 10F      -0.603000
      7 C4A          5.3800    -0.0190    -0.1570 c6         1 10F       0.166500
      8 N5           4.3820     1.0500     0.2100 n7         1 10F      -0.819400
      9 C6           3.3920     0.4890     1.1900 c6         1 10F       0.124500
     10 C7           4.1090    -0.1680     2.4230 c6         1 10F       0.125800
     11 N8           5.1430    -1.1790     2.0410 n7         1 10F      -0.833400
     12 C8A          6.1030    -0.6230     1.0920 c6         1 10F       0.367700
     13 C9           2.3800     1.5850     1.6350 c3         1 10F       0.120000
     14 N10          1.5170     2.0870     0.5380 n          1 10F      -0.232400
     15 C11         -2.1850     0.1700    -0.5190 ca         1 10F      -0.100600
     16 C12         -1.8040     0.3220     0.8350 ca         1 10F      -0.073000
     17 C13         -0.5770     0.9200     1.1730 ca         1 10F      -0.123000
     18 C14          0.3330     1.3340     0.1770 ca         1 10F      -0.086000
     19 C15         -0.0870     1.2590    -1.1660 ca         1 10F      -0.123000
     20 C16         -1.3110     0.6610    -1.5120 ca         1 10F      -0.073000
     21 N           -4.2940    -0.9550     0.0930 ns         1 10F      -0.419900
     22 CA          -5.6310    -1.5790    -0.0690 c3         1 10F      -0.048300
     23 CB          -6.7840    -0.5710     0.1850 c3         1 10F      -0.055400
     24 CG          -6.8260     0.6290    -0.7980 c3         1 10F      -0.203400
     25 CD          -8.0700     1.4950    -0.5250 c          1 10F       0.712000
     26 OE1         -9.1090     1.2110    -1.1000 o          1 10F      -0.761000
     27 OE2         -7.9790     2.3970     0.2940 o          1 10F      -0.761000
     28 CT          -5.7550    -2.8220     0.8650 c          1 10F       0.718000
     29 O2          -5.4350    -2.7040     2.0410 o          1 10F      -0.743000
     30 O1          -6.0790    -3.8910     0.3650 o          1 10F      -0.743000
     31 C18          1.9210     3.2950    -0.0800 c          1 10F       0.617900
     32 O5           1.2750     3.8850    -0.9420 o          1 10F      -0.580100
     33 O           -3.8380    -0.5620    -2.1040 o          1 10F      -0.642100
     34 HN1          7.5490    -1.9410     1.4990 hn         1 10F       0.406000
     35 H2           8.7400    -0.5410     0.2420 h3         1 10F      -0.061300
     36 HNA2         7.8350    -2.6560    -1.3460 hn         1 10F       0.391500
     37 HNAA         9.3350    -2.0690    -1.2700 hn         1 10F       0.391500
     38 HN3          8.1760    -0.2670    -1.9430 hn         1 10F       0.404000
     39 H4           7.0960     1.2380    -0.6690 h2         1 10F      -0.019300
     40 HO4          5.2000     1.3520    -2.1370 ho         1 10F       0.434000
     41 H4A          4.8520    -0.8490    -0.6480 h1         1 10F       0.136700
     42 HN5          4.8950     1.8090     0.6730 hn         1 10F       0.382000
     43 H6           2.8060    -0.3010     0.6940 h1         1 10F       0.114700
     44 H7           4.5930     0.6250     3.0140 h1         1 10F       0.035700
     45 H7A          3.3600    -0.6450     3.0720 h1         1 10F       0.035700
     46 HN8          5.6550    -1.4380     2.8890 hn         1 10F       0.405000
     47 H8A          6.6840     0.1540     1.6080 h2         1 10F      -0.034300
     48 H9           1.7570     1.1650     2.4310 h1         1 10F       0.046700
     49 H9A          2.9350     2.4200     2.0830 h1         1 10F       0.046700
     50 H12         -2.4560     0.0020     1.6430 ha         1 10F       0.136500
     51 H13         -0.3500     1.0610     2.2260 ha         1 10F       0.108500
     52 H15          0.5540     1.6310    -1.9610 ha         1 10F       0.108500
     53 H16         -1.5810     0.5890    -2.5640 ha         1 10F       0.136500
     54 HN          -3.9280    -0.8770     1.0330 hn         1 10F       0.297500
     55 HA          -5.7200    -1.9490    -1.0980 h1         1 10F       0.057700
     56 HB          -7.7360    -1.1130     0.1160 hc         1 10F       0.050200
     57 HBA         -6.7160    -0.1930     1.2130 hc         1 10F       0.050200
     58 HG          -5.9120     1.2080    -0.6130 hc         1 10F       0.012200
     59 HGA         -6.8770     0.1920    -1.8030 hc         1 10F       0.012200
     60 H18          2.8830     3.6760     0.3120 h5         1 10F      -0.019800
     61 C17         -3.4990    -0.4710    -0.9290 c          1 10F       0.600700
@<TRIPOS>BOND
     1     1     2 1   
     2     1    12 1   
     3     1    34 1   
     4     2     3 1   
     5     2     4 1   
     6     2    35 1   
     7     3    36 1   
     8     3    37 1   
     9     4     5 1   
    10     4    38 1   
    11     5     6 1   
    12     5     7 1   
    13     5    39 1   
    14     6    40 1   
    15     7     8 1   
    16     7    12 1   
    17     7    41 1   
    18     8     9 1   
    19     8    42 1   
    20     9    10 1   
    21     9    13 1   
    22     9    43 1   
    23    10    11 1   
    24    10    44 1   
    25    10    45 1   
    26    11    12 1   
    27    11    46 1   
    28    12    47 1   
    29    13    14 1   
    30    13    48 1   
    31    13    49 1   
    32    14    18 1   
    33    14    31 1   
    34    15    16 ar  
    35    15    20 ar  
    36    15    61 1   
    37    16    17 ar  
    38    16    50 1   
    39    17    18 ar  
    40    17    51 1   
    41    18    19 ar  
    42    19    20 ar  
    43    19    52 1   
    44    20    53 1   
    45    21    22 1   
    46    21    54 1   
    47    21    61 1   
    48    22    23 1   
    49    22    28 1   
    50    22    55 1   
    51    23    24 1   
    52    23    56 1   
    53    23    57 1   
    54    24    25 1   
    55    24    58 1   
    56    24    59 1   
    57    25    26 1   
    58    25    27 1   
    59    28    29 1   
    60    28    30 1   
    61    31    32 2   
    62    31    60 1   
    63    33    61 2   
@<TRIPOS>SUBSTRUCTURE
     1 10F         1 TEMP              0 ****  ****    0 ROOT
