@<TRIPOS>MOLECULE
10H
   42    44     1     0     0
SMALL
abcg2


@<TRIPOS>ATOM
      1 CAA         -2.8090    -2.4660    -0.3790 c3         1 10H      -0.104100
      2 CAS         -2.8290    -1.1990     0.4660 c6         1 10H       0.212500
      3 CAM         -4.0190    -1.2910     1.4270 c6         1 10H      -0.076400
      4 CAI         -4.1370    -0.1030     2.3660 c6         1 10H      -0.074400
      5 CAJ         -4.1790     1.1770     1.5530 c6         1 10H      -0.072400
      6 CAO         -2.9800     1.2450     0.6270 c6         1 10H       0.177800
      7 NAU         -2.9510     0.0820    -0.2830 n3         1 10H      -0.697500
      8 SAV         -2.0180     0.3400    -1.6380 sy         1 10H       1.142600
      9 OAC         -2.2120    -0.7610    -2.5650 o          1 10H      -0.536000
     10 OAD         -2.3220     1.6840    -2.1050 o          1 10H      -0.536000
     11 CAR         -0.3300     0.3260    -1.0980 ca         1 10H      -0.318500
     12 CAH          0.4300    -0.8310    -1.1980 ca         1 10H       0.002000
     13 CAF          1.7330    -0.8460    -0.7310 ca         1 10H      -0.152500
     14 CAG          0.2160     1.4780    -0.5450 ca         1 10H       0.002000
     15 CAE          1.5110     1.4580    -0.0620 ca         1 10H      -0.152500
     16 CAQ          2.2790     0.2970    -0.1480 ca         1 10H       0.028000
     17 NAT          3.5910     0.3040     0.3360 n          1 10H      -0.160600
     18 CAN          4.4290     1.4390     0.3430 c2         1 10H      -0.077400
     19 CAK          5.5710     1.1910     0.9750 c2         1 10H      -0.288200
     20 CAL          5.5530    -0.2170     1.4660 c5         1 10H      -0.132200
     21 CAP          4.2040    -0.7340     1.0170 c          1 10H       0.563000
     22 OAB          3.7220    -1.8250     1.2200 o          1 10H      -0.507000
     23 H1          -1.8910    -2.6130    -0.9400 hc         1 10H       0.053367
     24 H2          -2.9000    -3.3120     0.3020 hc         1 10H       0.053367
     25 H3          -3.6500    -2.5020    -1.0700 hc         1 10H       0.053367
     26 H4          -1.9060    -1.1610     1.0640 h1         1 10H       0.037700
     27 H5          -4.9340    -1.3860     0.8340 hc         1 10H       0.051200
     28 H6          -3.9120    -2.2150     1.9990 hc         1 10H       0.051200
     29 H7          -5.0260    -0.2010     2.9920 hc         1 10H       0.043200
     30 H8          -3.2740    -0.0780     3.0390 hc         1 10H       0.043200
     31 H9          -5.0990     1.2240     0.9630 hc         1 10H       0.053200
     32 H10         -4.1610     2.0580     2.1970 hc         1 10H       0.053200
     33 H11         -3.0250     2.1590     0.0430 h1         1 10H       0.055200
     34 H12         -2.0620     1.2750     1.2300 h1         1 10H       0.055200
     35 H13          0.0330    -1.7210    -1.6660 ha         1 10H       0.135500
     36 H14          2.3180    -1.7450    -0.8470 ha         1 10H       0.131000
     37 H15         -0.3530     2.3960    -0.4830 ha         1 10H       0.135500
     38 H16          1.9130     2.3550     0.3880 ha         1 10H       0.131000
     39 H17          4.1170     2.3370    -0.1660 h4         1 10H       0.220000
     40 H18          6.3890     1.8840     1.0890 ha         1 10H       0.213000
     41 H19          6.3490    -0.8320     1.0370 hc         1 10H       0.093700
     42 H20          5.6410    -0.3070     2.5520 hc         1 10H       0.093700
@<TRIPOS>BOND
     1     1     2 1   
     2     1    23 1   
     3     1    24 1   
     4     1    25 1   
     5     2     3 1   
     6     2     7 1   
     7     2    26 1   
     8     3     4 1   
     9     3    27 1   
    10     3    28 1   
    11     4     5 1   
    12     4    29 1   
    13     4    30 1   
    14     5     6 1   
    15     5    31 1   
    16     5    32 1   
    17     6     7 1   
    18     6    33 1   
    19     6    34 1   
    20     7     8 1   
    21     8     9 2   
    22     8    10 2   
    23     8    11 1   
    24    11    12 ar  
    25    11    14 ar  
    26    12    13 ar  
    27    12    35 1   
    28    13    16 ar  
    29    13    36 1   
    30    14    15 ar  
    31    14    37 1   
    32    15    16 ar  
    33    15    38 1   
    34    16    17 1   
    35    17    18 1   
    36    17    21 1   
    37    18    19 2   
    38    18    39 1   
    39    19    20 1   
    40    19    40 1   
    41    20    21 1   
    42    20    41 1   
    43    20    42 1   
    44    21    22 2   
@<TRIPOS>SUBSTRUCTURE
     1 10H         1 TEMP              0 ****  ****    0 ROOT
