@<TRIPOS>MOLECULE
10H
   42    44     1     0     0
SMALL
No Charge or Current Charge


@<TRIPOS>ATOM
      1 CAA         -2.2820    -2.2780     0.0100 c3         1 10H      -0.104100
      2 CAS         -2.6120    -0.8750     0.6030 c6         1 10H       0.212500
      3 CAM         -3.6750    -1.0990     1.7200 c6         1 10H      -0.076400
      4 CAI         -4.1460     0.2170     2.3620 c6         1 10H      -0.074400
      5 CAJ         -4.6810     1.1440     1.2610 c6         1 10H      -0.072400
      6 CAO         -3.5990     1.3840     0.1890 c6         1 10H       0.177800
      7 NAU         -3.0790     0.1210    -0.4230 n3         1 10H      -0.697500
      8 SAV         -2.0590     0.3820    -1.7890 sy         1 10H       1.142600
      9 OAC         -2.3100    -0.7150    -2.7320 o          1 10H      -0.536000
     10 OAD         -2.2650     1.7750    -2.2030 o          1 10H      -0.536000
     11 CAR         -0.3790     0.2880    -1.1310 ca         1 10H      -0.318500
     12 CAH          0.5090    -0.7120    -1.5780 ca         1 10H       0.002000
     13 CAF          1.8160    -0.7730    -1.0670 ca         1 10H      -0.152500
     14 CAG          0.0700     1.2460    -0.2020 ca         1 10H       0.002000
     15 CAE          1.3790     1.1810     0.3030 ca         1 10H      -0.152500
     16 CAQ          2.2630     0.1650    -0.1150 ca         1 10H       0.028000
     17 NAT          3.6040     0.1170     0.4060 n          1 10H      -0.160600
     18 CAN          4.3700     1.2360     0.7630 c2         1 10H      -0.077400
     19 CAK          5.5660     0.9210     1.2540 c2         1 10H      -0.288200
     20 CAL          5.6820    -0.5940     1.2320 c5         1 10H      -0.132200
     21 CAP          4.3090    -1.0770     0.7000 c          1 10H       0.563000
     22 OAB          3.8810    -2.2230     0.6240 o          1 10H      -0.507000
     23 H1          -1.4100    -2.2710    -0.6460 hc         1 10H       0.053367
     24 H2          -2.0570    -2.9980     0.8070 hc         1 10H       0.053367
     25 H3          -3.1290    -2.6740    -0.5620 hc         1 10H       0.053367
     26 H4          -1.7010    -0.4990     1.0910 h1         1 10H       0.037700
     27 H5          -4.5440    -1.6260     1.3010 hc         1 10H       0.051200
     28 H6          -3.2650    -1.7540     2.5010 hc         1 10H       0.051200
     29 H7          -4.9290     0.0180     3.1070 hc         1 10H       0.043200
     30 H8          -3.3120     0.6990     2.8930 hc         1 10H       0.043200
     31 H9          -5.5720     0.7010     0.7950 hc         1 10H       0.053200
     32 H10         -4.9950     2.1030     1.6950 hc         1 10H       0.053200
     33 H11         -4.0540     2.0290    -0.5770 h1         1 10H       0.055200
     34 H12         -2.7780     1.9560     0.6440 h1         1 10H       0.055200
     35 H13          0.1940    -1.4440    -2.3200 ha         1 10H       0.135500
     36 H14          2.4850    -1.5470    -1.4340 ha         1 10H       0.131000
     37 H15         -0.5900     2.0440     0.1330 ha         1 10H       0.135500
     38 H16          1.6960     1.9190     1.0350 ha         1 10H       0.131000
     39 H17          3.9530     2.2340     0.6090 h4         1 10H       0.220000
     40 H18          6.3240     1.6360     1.5880 ha         1 10H       0.213000
     41 H19          6.4650    -0.9470     0.5510 hc         1 10H       0.093700
     42 H20          5.8750    -1.0490     2.2090 hc         1 10H       0.093700
@<TRIPOS>BOND
     1     1     2 1   
     2     1    23 1   
     3     1    24 1   
     4     1    25 1   
     5     2     3 1   
     6     2     7 1   
     7     2    26 1   
     8     3     4 1   
     9     3    27 1   
    10     3    28 1   
    11     4     5 1   
    12     4    29 1   
    13     4    30 1   
    14     5     6 1   
    15     5    31 1   
    16     5    32 1   
    17     6     7 1   
    18     6    33 1   
    19     6    34 1   
    20     7     8 1   
    21     8     9 2   
    22     8    10 2   
    23     8    11 1   
    24    11    12 ar  
    25    11    14 ar  
    26    12    13 ar  
    27    12    35 1   
    28    13    16 ar  
    29    13    36 1   
    30    14    15 ar  
    31    14    37 1   
    32    15    16 ar  
    33    15    38 1   
    34    16    17 1   
    35    17    18 1   
    36    17    21 1   
    37    18    19 2   
    38    18    39 1   
    39    19    20 1   
    40    19    40 1   
    41    20    21 1   
    42    20    41 1   
    43    20    42 1   
    44    21    22 2   
@<TRIPOS>SUBSTRUCTURE
     1 10H         1 TEMP              0 ****  ****    0 ROOT
