@<TRIPOS>MOLECULE
10I
   44    44     1     0     0
SMALL
bcc


@<TRIPOS>ATOM
      1 C01          2.9170    30.4250    12.0270 c3         1 10I      -0.087100
      2 C02          4.2790    30.2870    12.6910 c3         1 10I      -0.090400
      3 C03          5.3070    29.6930    11.7400 c3         1 10I       0.220800
      4 C05          7.6080    28.8890    11.7640 c2         1 10I       0.682800
      5 C08         10.0350    28.5250    12.0930 c          1 10I       0.802100
      6 C10         12.3720    28.4140    12.7500 ca         1 10I       0.058600
      7 C11         13.2770    29.4130    12.3790 ca         1 10I      -0.064800
      8 C12         12.8460    30.8370    12.1550 c3         1 10I      -0.029600
      9 C13         12.4010    31.0800    10.7130 c3         1 10I      -0.086600
     10 C14         14.6080    29.0610    12.1700 ca         1 10I      -0.125500
     11 C15         15.0250    27.7480    12.3140 ca         1 10I      -0.119000
     12 C16         14.1140    26.7710    12.6840 ca         1 10I      -0.125500
     13 C17         12.7790    27.0860    12.9170 ca         1 10I      -0.064800
     14 C18         11.8330    26.0150    13.3890 c3         1 10I      -0.029600
     15 C19         11.5720    26.0870    14.8920 c3         1 10I      -0.086600
     16 N04          6.5940    29.5660    12.3860 nu         1 10I      -0.857200
     17 N06          7.4140    28.2610    10.6740 n2         1 10I      -0.861100
     18 N07          8.7950    28.9600    12.5040 ns         1 10I      -0.570400
     19 N09         11.0190    28.7630    12.9980 ns         1 10I      -0.511100
     20 O20         10.2390    27.9660    11.0270 o          1 10I      -0.612100
     21 H1           2.1840    30.8490    12.7130 hc         1 10I       0.036033
     22 H2           2.9660    31.0770    11.1530 hc         1 10I       0.036033
     23 H3           2.5390    29.4570    11.6950 hc         1 10I       0.036033
     24 H4           4.2010    29.6530    13.5780 hc         1 10I       0.040200
     25 H5           4.6200    31.2670    13.0370 hc         1 10I       0.040200
     26 H6           5.3690    30.3080    10.8320 h1         1 10I       0.053700
     27 H7           4.9800    28.7030    11.4190 h1         1 10I       0.053700
     28 H8          13.6820    31.5000    12.3860 hc         1 10I       0.046700
     29 H9          12.0390    31.1150    12.8350 hc         1 10I       0.046700
     30 H10         12.0870    32.1160    10.5740 hc         1 10I       0.036200
     31 H11         13.2150    30.8820    10.0150 hc         1 10I       0.036200
     32 H12         11.5640    30.4390    10.4360 hc         1 10I       0.036200
     33 H13         15.3190    29.8270    11.8850 ha         1 10I       0.132500
     34 H14         16.0620    27.4860    12.1430 ha         1 10I       0.133000
     35 H15         14.4440    25.7460    12.8030 ha         1 10I       0.132500
     36 H16         10.8870    26.0600    12.8480 hc         1 10I       0.046700
     37 H17         12.2670    25.0410    13.1500 hc         1 10I       0.046700
     38 H18         10.9040    25.2840    15.2060 hc         1 10I       0.036200
     39 H19         12.5000    25.9900    15.4550 hc         1 10I       0.036200
     40 H20         11.1080    27.0330    15.1730 hc         1 10I       0.036200
     41 H21          6.8630    30.3610    12.9460 hn         1 10I       0.404800
     42 H22          8.2400    27.7480    10.3970 hn         1 10I       0.429400
     43 H23          8.7210    29.3380    13.4370 hn         1 10I       0.309500
     44 H24         10.8260    29.3410    13.8020 hn         1 10I       0.316500
@<TRIPOS>BOND
     1     1     2 1   
     2     1    21 1   
     3     1    22 1   
     4     1    23 1   
     5     2     3 1   
     6     2    24 1   
     7     2    25 1   
     8     3    16 1   
     9     3    26 1   
    10     3    27 1   
    11     4    16 1   
    12     4    17 2   
    13     4    18 1   
    14     5    18 1   
    15     5    19 1   
    16     5    20 2   
    17     6     7 ar  
    18     6    13 ar  
    19     6    19 1   
    20     7     8 1   
    21     7    10 ar  
    22     8     9 1   
    23     8    28 1   
    24     8    29 1   
    25     9    30 1   
    26     9    31 1   
    27     9    32 1   
    28    10    11 ar  
    29    10    33 1   
    30    11    12 ar  
    31    11    34 1   
    32    12    13 ar  
    33    12    35 1   
    34    13    14 1   
    35    14    15 1   
    36    14    36 1   
    37    14    37 1   
    38    15    38 1   
    39    15    39 1   
    40    15    40 1   
    41    16    41 1   
    42    17    42 1   
    43    18    43 1   
    44    19    44 1   
@<TRIPOS>SUBSTRUCTURE
     1 10I         1 TEMP              0 ****  ****    0 ROOT
