@<TRIPOS>MOLECULE
10I
   44    44     1     0     0
SMALL
No Charge or Current Charge


@<TRIPOS>ATOM
      1 C01          2.8630    30.4030    12.3690 c3         1 10I      -0.087100
      2 C02          4.3610    30.3850    12.7320 c3         1 10I      -0.090400
      3 C03          5.1970    29.4970    11.7890 c3         1 10I       0.220800
      4 C05          7.5960    28.8240    11.5600 c2         1 10I       0.682800
      5 C08         10.0020    28.4770    11.8330 c          1 10I       0.668100
      6 C10         12.3830    28.4460    12.6800 ca         1 10I      -0.034000
      7 C11         13.3520    29.4490    12.4260 ca         1 10I      -0.064800
      8 C12         12.9570    30.9060    12.1740 c3         1 10I      -0.029600
      9 C13         12.5640    31.1620    10.7060 c3         1 10I      -0.086600
     10 C14         14.7160    29.1020    12.3850 ca         1 10I      -0.107500
     11 C15         15.1200    27.7790    12.6070 ca         1 10I      -0.101000
     12 C16         14.1650    26.7900    12.8800 ca         1 10I      -0.107500
     13 C17         12.7930    27.1080    12.9220 ca         1 10I      -0.064800
     14 C18         11.8010    25.9960    13.2760 c3         1 10I      -0.029600
     15 C19         11.3030    26.0890    14.7310 c3         1 10I      -0.086600
     16 N04          6.6130    29.5140    12.1900 nu         1 10I      -0.912400
     17 N06          7.3730    28.1040    10.5500 n2         1 10I      -0.861100
     18 N07          8.7870    28.9790    12.2050 ns         1 10I      -0.503400
     19 N09         11.0110    28.8060    12.7160 ns         1 10I      -0.185000
     20 O20         10.1720    27.8150    10.8180 o          1 10I      -0.612100
     21 H1           2.3080    31.0450    13.0640 hc         1 10I       0.036033
     22 H2           2.7140    30.7890    11.3530 hc         1 10I       0.036033
     23 H3           2.4380    29.3930    12.4220 hc         1 10I       0.036033
     24 H4           4.4720    30.0270    13.7630 hc         1 10I       0.040200
     25 H5           4.7450    31.4120    12.7030 hc         1 10I       0.040200
     26 H6           5.0920    29.8640    10.7590 h1         1 10I       0.053700
     27 H7           4.8080    28.4700    11.8230 h1         1 10I       0.053700
     28 H8          13.7890    31.5720    12.4330 hc         1 10I       0.046700
     29 H9          12.1290    31.2050    12.8270 hc         1 10I       0.046700
     30 H10         12.3010    32.2160    10.5590 hc         1 10I       0.036200
     31 H11         13.3980    30.9190    10.0370 hc         1 10I       0.036200
     32 H12         11.7010    30.5500    10.4200 hc         1 10I       0.036200
     33 H13         15.4670    29.8620    12.1780 ha         1 10I       0.114500
     34 H14         16.1770    27.5210    12.5760 ha         1 10I       0.115000
     35 H15         14.4970    25.7710    13.0680 ha         1 10I       0.114500
     36 H16         10.9400    26.0030    12.6000 hc         1 10I       0.046700
     37 H17         12.2690    25.0130    13.1350 hc         1 10I       0.046700
     38 H18         10.6180    25.2610    14.9540 hc         1 10I       0.036200
     39 H19         12.1460    26.0350    15.4300 hc         1 10I       0.036200
     40 H20         10.7690    27.0300    14.9050 hc         1 10I       0.036200
     41 H21          6.9140    30.2880    12.7730 hn         1 10I       0.460000
     42 H22          8.2880    27.6990    10.2940 hn         1 10I       0.429400
     43 H23          8.7650    29.4900    13.0710 hn         1 10I       0.309500
     44 H24         10.7460    29.4000    13.4900 hn         1 10I       0.150000
@<TRIPOS>BOND
     1     1     2 1   
     2     1    21 1   
     3     1    22 1   
     4     1    23 1   
     5     2     3 1   
     6     2    24 1   
     7     2    25 1   
     8     3    16 1   
     9     3    26 1   
    10     3    27 1   
    11     4    16 1   
    12     4    17 2   
    13     4    18 1   
    14     5    18 1   
    15     5    19 1   
    16     5    20 2   
    17     6     7 ar  
    18     6    13 ar  
    19     6    19 1   
    20     7     8 1   
    21     7    10 ar  
    22     8     9 1   
    23     8    28 1   
    24     8    29 1   
    25     9    30 1   
    26     9    31 1   
    27     9    32 1   
    28    10    11 ar  
    29    10    33 1   
    30    11    12 ar  
    31    11    34 1   
    32    12    13 ar  
    33    12    35 1   
    34    13    14 1   
    35    14    15 1   
    36    14    36 1   
    37    14    37 1   
    38    15    38 1   
    39    15    39 1   
    40    15    40 1   
    41    16    41 1   
    42    17    42 1   
    43    18    43 1   
    44    19    44 1   
@<TRIPOS>SUBSTRUCTURE
     1 10I         1 TEMP              0 ****  ****    0 ROOT
