@<TRIPOS>MOLECULE
10J
   54    58     1     0     0
SMALL
abcg2


@<TRIPOS>ATOM
      1 C1          -0.6750    -0.4130    -0.1550 c5         1 10J       0.307500
      2 C2          -1.3970     0.6100    -1.0290 c5         1 10J      -0.170700
      3 N3          -0.6510     2.2820     0.5950 n          1 10J      -0.382300
      4 C4          -0.6300     1.3060     1.6050 c2         1 10J       0.690800
      5 C5          -1.0520     2.0340    -0.6930 c          1 10J       0.589000
      6 N6          -0.8640     0.0220     1.2000 nu         1 10J      -0.901400
      7 N7          -2.8780    -1.1270    -0.4550 n          1 10J      -0.405800
      8 C8           0.7780    -0.6000    -0.4960 cc         1 10J      -0.259300
      9 C9          -1.5300    -1.6590    -0.3920 c5         1 10J       0.098000
     10 C10         -3.9140    -1.7790     0.1110 c          1 10J       0.621700
     11 C11         -2.8840     0.2900    -0.8160 c5         1 10J       0.125000
     12 C12          1.8540    -0.3610     0.3010 cd         1 10J      -0.096000
     13 C13          3.1050    -0.6040    -0.3450 cd         1 10J      -0.060000
     14 S14          1.2820    -1.1370    -2.0570 ss         1 10J       0.238000
     15 C15          2.9320    -1.0310    -1.6310 cc         1 10J      -0.225000
     16 C16          6.7720     0.0710     0.1670 ca         1 10J      -0.017000
     17 C17         -5.2440    -1.1010     0.0630 ca         1 10J      -0.146600
     18 C18          4.4110    -0.4120     0.2990 ca         1 10J      -0.015000
     19 N19          8.8400     0.6510    -1.2630 n1         1 10J      -0.450000
     20 C20          7.9160     0.3920    -0.6250 cg         1 10J       0.322000
     21 N21         -0.4300     1.5410     2.8380 n2         1 10J      -0.885100
     22 C22          5.5390    -0.1020    -0.4560 ca         1 10J      -0.064000
     23 O23         -1.1370     2.9110    -1.5260 o          1 10J      -0.523000
     24 C24          6.9030    -0.0500     1.5500 ca         1 10J      -0.070000
     25 O25         -3.7960    -2.8770     0.6370 o          1 10J      -0.587100
     26 C26         -5.9600    -0.9450     1.2470 ca         1 10J      -0.074500
     27 C27          4.5510    -0.5330     1.6830 ca         1 10J      -0.079000
     28 C28          5.7800    -0.3520     2.3000 ca         1 10J      -0.112000
     29 C29         -0.2890     3.6390     0.9770 c3         1 10J       0.071300
     30 C30         -7.2180    -0.3620     1.2270 ca         1 10J      -0.116500
     31 C31         -5.8120    -0.7010    -1.1430 ca         1 10J      -0.074500
     32 C32         -7.0810    -0.1410    -1.1630 ca         1 10J      -0.116500
     33 C33         -7.7820     0.0390     0.0220 ca         1 10J      -0.092000
     34 H1          -1.1390     0.4560    -2.0780 hc         1 10J       0.099700
     35 H2          -1.2530    -2.1390    -1.3340 h1         1 10J       0.075700
     36 H3          -1.4190    -2.3940     0.4040 h1         1 10J       0.075700
     37 H4          -3.3220     0.8910    -0.0170 h1         1 10J       0.064200
     38 H5          -3.4420     0.4890    -1.7290 h1         1 10J       0.064200
     39 H6           1.7680    -0.0040     1.3180 ha         1 10J       0.145000
     40 H7           3.6880    -1.3140    -2.3480 h4         1 10J       0.158000
     41 H8          -0.3490     2.5240     3.0550 hn         1 10J       0.405400
     42 H10          5.4640     0.0210    -1.5280 ha         1 10J       0.126000
     43 H11          7.8640     0.0930     2.0230 ha         1 10J       0.128000
     44 H12         -5.5300    -1.2650     2.1880 ha         1 10J       0.122500
     45 H13          3.6920    -0.7840     2.2920 ha         1 10J       0.121000
     46 H14          5.8620    -0.4510     3.3740 ha         1 10J       0.123000
     47 H15          0.6820     3.6420     1.4690 h1         1 10J       0.055700
     48 H16         -0.2270     4.2540     0.0890 h1         1 10J       0.055700
     49 H17         -1.0340     4.0730     1.6450 h1         1 10J       0.055700
     50 H18         -7.7620    -0.2260     2.1520 ha         1 10J       0.117500
     51 H19         -5.2770    -0.8440    -2.0740 ha         1 10J       0.122500
     52 H20         -7.5220     0.1540    -2.1060 ha         1 10J       0.117500
     53 H21         -8.7670     0.4870     0.0070 ha         1 10J       0.116000
     54 H22         -0.7290    -0.6590     1.9330 hn         1 10J       0.510000
@<TRIPOS>BOND
     1     1     2 1   
     2     1     6 1   
     3     1     8 1   
     4     1     9 1   
     5     2     5 1   
     6     2    11 1   
     7     2    34 1   
     8     3     4 1   
     9     3     5 1   
    10     3    29 1   
    11     4     6 1   
    12     4    21 2   
    13     5    23 2   
    14     6    54 1   
    15     7     9 1   
    16     7    10 1   
    17     7    11 1   
    18     8    12 2   
    19     8    14 1   
    20     9    35 1   
    21     9    36 1   
    22    10    17 1   
    23    10    25 2   
    24    11    37 1   
    25    11    38 1   
    26    12    13 1   
    27    12    39 1   
    28    13    15 2   
    29    13    18 1   
    30    14    15 1   
    31    15    40 1   
    32    16    20 1   
    33    16    22 ar  
    34    16    24 ar  
    35    17    26 ar  
    36    17    31 ar  
    37    18    22 ar  
    38    18    27 ar  
    39    19    20 3   
    40    21    41 1   
    41    22    42 1   
    42    24    28 ar  
    43    24    43 1   
    44    26    30 ar  
    45    26    44 1   
    46    27    28 ar  
    47    27    45 1   
    48    28    46 1   
    49    29    47 1   
    50    29    48 1   
    51    29    49 1   
    52    30    33 ar  
    53    30    50 1   
    54    31    32 ar  
    55    31    51 1   
    56    32    33 ar  
    57    32    52 1   
    58    33    53 1   
@<TRIPOS>SUBSTRUCTURE
     1 10J         1 TEMP              0 ****  ****    0 ROOT
