@<TRIPOS>MOLECULE
10J
   54    58     1     0     0
SMALL
No Charge or Current Charge


@<TRIPOS>ATOM
      1 C1          -0.6290     0.0830     0.2160 c5         1 10J       0.307500
      2 C2          -1.5680     0.9540    -0.6440 c5         1 10J      -0.170700
      3 N3          -0.8140     2.8330     0.7740 n          1 10J      -0.382300
      4 C4          -0.1880     1.8970     1.5940 c2         1 10J       0.690800
      5 C5          -1.2950     2.4560    -0.4940 c          1 10J       0.589000
      6 N6          -0.7330     0.6700     1.5690 nu         1 10J      -0.901400
      7 N7          -2.8460    -0.8710     0.0360 n          1 10J      -0.405800
      8 C8           0.7710    -0.0990    -0.3400 cc         1 10J      -0.259300
      9 C9          -1.4310    -1.2630     0.3030 c5         1 10J       0.098000
     10 C10         -3.9130    -1.6900     0.4590 c          1 10J       0.621700
     11 C11         -2.9800     0.5970    -0.1050 c5         1 10J       0.125000
     12 C12          1.9200    -0.2030     0.4070 cd         1 10J      -0.096000
     13 C13          3.1160    -0.3880    -0.3580 cd         1 10J      -0.060000
     14 S14          1.1260    -0.2640    -2.0520 ss         1 10J       0.238000
     15 C15          2.8410    -0.4360    -1.7090 cc         1 10J      -0.225000
     16 C16          6.8990    -0.8570    -0.0890 ca         1 10J      -0.017000
     17 C17         -5.3130    -1.3600    -0.0100 ca         1 10J      -0.146600
     18 C18          4.4810    -0.5200     0.2140 ca         1 10J      -0.015000
     19 N19          8.9270    -1.2450    -1.6780 n1         1 10J      -0.450000
     20 C20          8.0210    -1.0710    -0.9610 cg         1 10J       0.322000
     21 N21          0.5270     2.1630     2.5990 n2         1 10J      -0.885100
     22 C22          5.6010    -0.7300    -0.6250 ca         1 10J      -0.064000
     23 O23         -1.4460     3.2640    -1.4010 o          1 10J      -0.523000
     24 C24          7.0930    -0.7730     1.3000 ca         1 10J      -0.070000
     25 O25         -3.7010    -2.7010     1.1190 o          1 10J      -0.587100
     26 C26         -6.4110    -1.6390     0.8320 ca         1 10J      -0.074500
     27 C27          4.7010    -0.4380     1.6100 ca         1 10J      -0.079000
     28 C28          5.9940    -0.5640     2.1460 ca         1 10J      -0.112000
     29 C29         -0.7250     4.2860     1.0680 c3         1 10J       0.071300
     30 C30         -7.7240    -1.3610     0.4120 ca         1 10J      -0.116500
     31 C31         -5.5600    -0.8400    -1.3020 ca         1 10J      -0.074500
     32 C32         -6.8740    -0.5640    -1.7200 ca         1 10J      -0.116500
     33 C33         -7.9550    -0.8180    -0.8610 ca         1 10J      -0.092000
     34 H1          -1.5310     0.7010    -1.7080 hc         1 10J       0.099700
     35 H2          -1.0910    -1.9650    -0.4690 h1         1 10J       0.075700
     36 H3          -1.3030    -1.7570     1.2750 h1         1 10J       0.075700
     37 H4          -3.1980     1.0660     0.8650 h1         1 10J       0.064200
     38 H5          -3.7610     0.9080    -0.8090 h1         1 10J       0.064200
     39 H6           1.9070    -0.1490     1.4890 ha         1 10J       0.145000
     40 H7           3.5100    -0.5650    -2.5470 h4         1 10J       0.158000
     41 H8           0.7290     3.1690     2.5820 hn         1 10J       0.405400
     42 H10          5.4780    -0.8000    -1.7010 ha         1 10J       0.126000
     43 H11          8.0910    -0.8690     1.7240 ha         1 10J       0.128000
     44 H12         -6.2460    -2.0620     1.8220 ha         1 10J       0.122500
     45 H13          3.8790    -0.2750     2.2980 ha         1 10J       0.121000
     46 H14          6.1430    -0.4980     3.2210 ha         1 10J       0.123000
     47 H15          0.2260     4.6840     0.6900 h1         1 10J       0.055700
     48 H16         -1.5530     4.8260     0.5910 h1         1 10J       0.055700
     49 H17         -0.7880     4.4630     2.1490 h1         1 10J       0.055700
     50 H18         -8.5610    -1.5690     1.0750 ha         1 10J       0.117500
     51 H19         -4.7400    -0.6730    -1.9960 ha         1 10J       0.122500
     52 H20         -7.0530    -0.1620    -2.7150 ha         1 10J       0.117500
     53 H21         -8.9720    -0.6050    -1.1870 ha         1 10J       0.116000
     54 H22         -0.3910     0.1300     2.3540 hn         1 10J       0.510000
@<TRIPOS>BOND
     1     1     2 1   
     2     1     6 1   
     3     1     8 1   
     4     1     9 1   
     5     2     5 1   
     6     2    11 1   
     7     2    34 1   
     8     3     4 1   
     9     3     5 1   
    10     3    29 1   
    11     4     6 1   
    12     4    21 2   
    13     5    23 2   
    14     6    54 1   
    15     7     9 1   
    16     7    10 1   
    17     7    11 1   
    18     8    12 2   
    19     8    14 1   
    20     9    35 1   
    21     9    36 1   
    22    10    17 1   
    23    10    25 2   
    24    11    37 1   
    25    11    38 1   
    26    12    13 1   
    27    12    39 1   
    28    13    15 2   
    29    13    18 1   
    30    14    15 1   
    31    15    40 1   
    32    16    20 1   
    33    16    22 ar  
    34    16    24 ar  
    35    17    26 ar  
    36    17    31 ar  
    37    18    22 ar  
    38    18    27 ar  
    39    19    20 3   
    40    21    41 1   
    41    22    42 1   
    42    24    28 ar  
    43    24    43 1   
    44    26    30 ar  
    45    26    44 1   
    46    27    28 ar  
    47    27    45 1   
    48    28    46 1   
    49    29    47 1   
    50    29    48 1   
    51    29    49 1   
    52    30    33 ar  
    53    30    50 1   
    54    31    32 ar  
    55    31    51 1   
    56    32    33 ar  
    57    32    52 1   
    58    33    53 1   
@<TRIPOS>SUBSTRUCTURE
     1 10J         1 TEMP              0 ****  ****    0 ROOT
