@<TRIPOS>MOLECULE
10K
   40    43     1     0     0
SMALL
abcg2


@<TRIPOS>ATOM
      1 O            1.1690     0.1440    -0.2410 o          1 10K      -0.543100
      2 S           -6.1160    -0.0580    -1.0490 ss         1 10K       0.203000
      3 C1          -7.3220     0.7100    -0.1080 cc         1 10K      -0.241000
      4 N1           2.6890    -1.5250    -0.0760 ns         1 10K      -0.409100
      5 C2          -6.8730     0.9870     1.1470 cd         1 10K      -0.132000
      6 N2           5.0310    -1.3470     0.1660 na         1 10K      -0.047200
      7 C3          -5.5300     0.5750     1.3510 cd         1 10K      -0.123000
      8 N3           6.0360    -0.4660     0.2410 nc         1 10K      -0.519800
      9 C4          -4.9720    -0.0100     0.2460 cc         1 10K      -0.160000
     10 C5          -3.6230    -0.5510     0.0890 ca         1 10K       0.005000
     11 C6          -3.0130    -0.6480    -1.1630 ca         1 10K      -0.099500
     12 C7          -1.7330    -1.1630    -1.2910 ca         1 10K      -0.088500
     13 C8          -1.0190    -1.5920    -0.1780 ca         1 10K      -0.075300
     14 C9          -1.6240    -1.4930     1.0720 ca         1 10K      -0.088500
     15 C10         -2.9060    -0.9870     1.2060 ca         1 10K      -0.099500
     16 C11          0.3720    -2.1300    -0.3140 c3         1 10K      -0.110100
     17 C12          1.4240    -1.0410    -0.2040 c          1 10K       0.610100
     18 C13          3.8320    -0.7550     0.0160 cc         1 10K       0.002600
     19 C14          5.4630     0.7180     0.1390 cd         1 10K       0.302300
     20 C15          4.0630     0.6040    -0.0070 cd         1 10K      -0.233000
     21 C16          6.2750     1.9450     0.1780 cx         1 10K      -0.162000
     22 C17          5.7030     3.2170     0.7400 cx         1 10K      -0.121400
     23 C18          5.9470     3.1010    -0.7270 cx         1 10K      -0.121400
     24 HN1          2.8070    -2.5270    -0.0460 hn         1 10K       0.316500
     25 H2          -7.4740     1.4740     1.9020 ha         1 10K       0.135000
     26 H3          -4.9940     0.7250     2.2780 ha         1 10K       0.135000
     27 H6          -3.5310    -0.3080    -2.0520 ha         1 10K       0.117500
     28 H7          -1.2880    -1.2320    -2.2760 ha         1 10K       0.112500
     29 H9          -1.0940    -1.8280     1.9550 ha         1 10K       0.112500
     30 H10         -3.3580    -0.9470     2.1880 ha         1 10K       0.117500
     31 H11          0.5650    -2.8970     0.4400 hc         1 10K       0.065700
     32 H11A         0.5010    -2.6190    -1.2850 hc         1 10K       0.065700
     33 H15          3.3430     1.3950    -0.1070 ha         1 10K       0.168000
     34 H16          7.3280     1.7660     0.3650 hc         1 10K       0.092700
     35 H17          4.6790     3.1960     1.0920 hc         1 10K       0.073450
     36 H17A         6.3610     3.8460     1.3250 hc         1 10K       0.073450
     37 H18          6.7740     3.6500    -1.1580 hc         1 10K       0.073450
     38 H18A         5.0920     2.9980    -1.3830 hc         1 10K       0.073450
     39 HN2          5.2250    -2.3350     0.2160 hn         1 10K       0.365000
     40 H1          -8.2940     0.9130    -0.5280 h4         1 10K       0.151000
@<TRIPOS>BOND
     1     1    17 2   
     2     2     3 1   
     3     2     9 1   
     4     3     5 2   
     5     3    40 1   
     6     4    17 1   
     7     4    18 1   
     8     4    24 1   
     9     5     7 1   
    10     5    25 1   
    11     6     8 1   
    12     6    18 1   
    13     6    39 1   
    14     7     9 2   
    15     7    26 1   
    16     8    19 2   
    17     9    10 1   
    18    10    11 ar  
    19    10    15 ar  
    20    11    12 ar  
    21    11    27 1   
    22    12    13 ar  
    23    12    28 1   
    24    13    14 ar  
    25    13    16 1   
    26    14    15 ar  
    27    14    29 1   
    28    15    30 1   
    29    16    17 1   
    30    16    31 1   
    31    16    32 1   
    32    18    20 2   
    33    19    20 1   
    34    19    21 1   
    35    20    33 1   
    36    21    22 1   
    37    21    23 1   
    38    21    34 1   
    39    22    23 1   
    40    22    35 1   
    41    22    36 1   
    42    23    37 1   
    43    23    38 1   
@<TRIPOS>SUBSTRUCTURE
     1 10K         1 TEMP              0 ****  ****    0 ROOT
