@<TRIPOS>MOLECULE
10K
   40    43     1     0     0
SMALL
No Charge or Current Charge


@<TRIPOS>ATOM
      1 O            1.7000    -0.5450    -1.9910 o          1 10K      -0.543100
      2 S           -6.0710     0.1670    -0.7440 ss         1 10K       0.203000
      3 C1          -6.9680     0.9730     0.5410 cc         1 10K      -0.241000
      4 N1           2.3460    -1.4680     0.0150 ns         1 10K      -0.409100
      5 C2          -6.2070     1.0960     1.6790 cd         1 10K      -0.132000
      6 N2           4.2060    -0.8040     1.5320 na         1 10K      -0.047200
      7 C3          -4.9020     0.5450     1.5550 cd         1 10K      -0.123000
      8 N3           5.2260     0.1360     1.6180 nc         1 10K      -0.519800
      9 C4          -4.6760    -0.0070     0.3170 cc         1 10K      -0.160000
     10 C5          -3.3910    -0.6140    -0.0450 ca         1 10K       0.005000
     11 C6          -2.9560    -0.5930    -1.3850 ca         1 10K      -0.099500
     12 C7          -1.7290    -1.1750    -1.7490 ca         1 10K      -0.088500
     13 C8          -0.9180    -1.7920    -0.7800 ca         1 10K      -0.075300
     14 C9          -1.3510    -1.8210     0.5590 ca         1 10K      -0.088500
     15 C10         -2.5770    -1.2390     0.9230 ca         1 10K      -0.099500
     16 C11          0.4150    -2.4190    -1.1750 c3         1 10K      -0.110100
     17 C12          1.5440    -1.3820    -1.1120 c          1 10K       0.610100
     18 C13          3.4310    -0.6790     0.3810 cc         1 10K       0.002600
     19 C14          5.0590     0.8330     0.5100 cd         1 10K       0.302300
     20 C15          3.9840     0.3780    -0.2780 cd         1 10K      -0.233000
     21 C16          5.9380     1.9770     0.1570 cx         1 10K      -0.162000
     22 C17          5.8320     3.2890     0.9030 cx         1 10K      -0.121400
     23 C18          5.3940     3.2070    -0.5390 cx         1 10K      -0.121400
     24 HN1          2.0780    -2.2150     0.6450 hn         1 10K       0.316500
     25 H2          -6.5660     1.5730     2.5860 ha         1 10K       0.135000
     26 H3          -4.1700     0.5730     2.3570 ha         1 10K       0.135000
     27 H6          -3.5620    -0.1160    -2.1510 ha         1 10K       0.117500
     28 H7          -1.4080    -1.1410    -2.7880 ha         1 10K       0.112500
     29 H9          -0.7390    -2.2980     1.3220 ha         1 10K       0.112500
     30 H10         -2.8950    -1.2890     1.9610 ha         1 10K       0.117500
     31 H11          0.6350    -3.2520    -0.4980 hc         1 10K       0.065700
     32 H11A         0.3490    -2.7990    -2.2010 hc         1 10K       0.065700
     33 H15          3.6740     0.8010    -1.2250 ha         1 10K       0.168000
     34 H16          6.9400     1.6590    -0.1230 hc         1 10K       0.092700
     35 H17          5.0590     3.3820     1.6620 hc         1 10K       0.073450
     36 H17A         6.7540     3.8220     1.1250 hc         1 10K       0.073450
     37 H18          6.0210     3.6850    -1.2880 hc         1 10K       0.073450
     38 H18A         4.3270     3.2580    -0.7420 hc         1 10K       0.073450
     39 HN2          4.0750    -1.5020     2.2630 hn         1 10K       0.365000
     40 H1          -7.9840     1.3010     0.3590 h4         1 10K       0.151000
@<TRIPOS>BOND
     1     1    17 2   
     2     2     3 1   
     3     2     9 1   
     4     3     5 2   
     5     3    40 1   
     6     4    17 1   
     7     4    18 1   
     8     4    24 1   
     9     5     7 1   
    10     5    25 1   
    11     6     8 1   
    12     6    18 1   
    13     6    39 1   
    14     7     9 2   
    15     7    26 1   
    16     8    19 2   
    17     9    10 1   
    18    10    11 ar  
    19    10    15 ar  
    20    11    12 ar  
    21    11    27 1   
    22    12    13 ar  
    23    12    28 1   
    24    13    14 ar  
    25    13    16 1   
    26    14    15 ar  
    27    14    29 1   
    28    15    30 1   
    29    16    17 1   
    30    16    31 1   
    31    16    32 1   
    32    18    20 2   
    33    19    20 1   
    34    19    21 1   
    35    20    33 1   
    36    21    22 1   
    37    21    23 1   
    38    21    34 1   
    39    22    23 1   
    40    22    35 1   
    41    22    36 1   
    42    23    37 1   
    43    23    38 1   
@<TRIPOS>SUBSTRUCTURE
     1 10K         1 TEMP              0 ****  ****    0 ROOT
