@<TRIPOS>MOLECULE
10L
   17    18     1     0     0
SMALL
No Charge or Current Charge


@<TRIPOS>ATOM
      1 N3          -1.6490     1.9960    -0.0150 nv         1 10L      -1.058000
      2 C3          -1.1780     0.7050    -0.0110 ca         1 10L       0.260000
      3 C2           0.1970     0.4020    -0.0090 ca         1 10L      -0.074200
      4 C4          -2.0760    -0.3840    -0.0080 ca         1 10L      -0.153000
      5 C5          -1.5960    -1.7190    -0.0010 ca         1 10L      -0.110000
      6 C6          -0.2090    -1.9820     0.0030 ca         1 10L      -0.074000
      7 C1           0.6560    -0.8800    -0.0020 ca         1 10L      -0.199900
      8 C7           2.0940    -0.7870    -0.0040 cc         1 10L       0.344800
      9 N1           2.5090     0.4910    -0.0150 nd         1 10L      -0.516100
     10 N9           1.3110     1.2220    -0.0190 na         1 10L      -0.061400
     11 H31N        -1.0190     2.7770     0.1500 hn         1 10L       0.437500
     12 H32N        -2.6470     2.1700     0.0970 hn         1 10L       0.437500
     13 H4          -3.1470    -0.2020    -0.0110 ha         1 10L       0.111000
     14 H9           1.3090     2.2400    -0.0350 hn         1 10L       0.375000
     15 H5          -2.3020    -2.5470     0.0020 ha         1 10L       0.112000
     16 H6           0.1720    -3.0010     0.0080 ha         1 10L       0.120000
     17 H1           2.8530    -1.5580     0.0010 h4         1 10L       0.048800
@<TRIPOS>BOND
     1     1     2 1   
     2     1    11 1   
     3     1    12 1   
     4     2     3 ar  
     5     2     4 ar  
     6     3     7 ar  
     7     3    10 1   
     8     4     5 ar  
     9     4    13 1   
    10     5     6 ar  
    11     5    15 1   
    12     6     7 ar  
    13     6    16 1   
    14     7     8 1   
    15     8     9 2   
    16     8    17 1   
    17     9    10 1   
    18    10    14 1   
@<TRIPOS>SUBSTRUCTURE
     1 10L         1 TEMP              0 ****  ****    0 ROOT
