@<TRIPOS>MOLECULE
10L
   17    18     1     0     0
SMALL
abcg2


@<TRIPOS>ATOM
      1 N3          -1.6130     2.0300    -0.1230 nv         1 10L      -1.058000
      2 C3          -1.1820     0.7180    -0.0370 ca         1 10L       0.260000
      3 C2           0.1930     0.4050    -0.0320 ca         1 10L      -0.074200
      4 C4          -2.0350    -0.3710    -0.0210 ca         1 10L      -0.153000
      5 C5          -1.5620    -1.7000    -0.0000 ca         1 10L      -0.110000
      6 C6          -0.2210    -1.9960     0.0200 ca         1 10L      -0.074000
      7 C1           0.6740    -0.9120     0.0050 ca         1 10L      -0.199900
      8 C7           2.0860    -0.7570     0.0010 cc         1 10L       0.344800
      9 N1           2.4230     0.5090    -0.0380 nd         1 10L      -0.516100
     10 N9           1.2880     1.2060    -0.0560 na         1 10L      -0.061400
     11 H31N        -1.0850     2.6960     0.4210 hn         1 10L       0.437500
     12 H32N        -2.6000     2.1480     0.0510 hn         1 10L       0.437500
     13 H4          -3.1050    -0.1970    -0.0240 ha         1 10L       0.111000
     14 H9           1.3300     2.2100    -0.1140 hn         1 10L       0.375000
     15 H5          -2.2910    -2.5000     0.0100 ha         1 10L       0.112000
     16 H6           0.1330    -3.0180     0.0440 ha         1 10L       0.120000
     17 H1           2.8440    -1.5260     0.0240 h4         1 10L       0.048800
@<TRIPOS>BOND
     1     1     2 1   
     2     1    11 1   
     3     1    12 1   
     4     2     3 ar  
     5     2     4 ar  
     6     3     7 ar  
     7     3    10 1   
     8     4     5 ar  
     9     4    13 1   
    10     5     6 ar  
    11     5    15 1   
    12     6     7 ar  
    13     6    16 1   
    14     7     8 1   
    15     8     9 2   
    16     8    17 1   
    17     9    10 1   
    18    10    14 1   
@<TRIPOS>SUBSTRUCTURE
     1 10L         1 TEMP              0 ****  ****    0 ROOT
