@<TRIPOS>MOLECULE
10M
   75    76     1     0     0
SMALL
No Charge or Current Charge


@<TRIPOS>ATOM
      1 O10         -1.0150     3.9650     0.4280 oh         1 10M      -0.725000
      2 C22         -1.1520     2.6490    -0.1590 c6         1 10M       0.123300
      3 C21         -2.4580     1.9790     0.3470 c6         1 10M       0.166300
      4 O9          -3.5750     2.8510     0.0910 oh         1 10M      -0.727000
      5 C14         -2.6100     0.5610    -0.2940 c6         1 10M       0.161300
      6 O3          -3.8080    -0.1180     0.1580 os         1 10M      -0.502000
      7 C15         -5.0240     0.2250    -0.5430 c6         1 10M       0.365300
      8 C20         -6.1530     0.7000     0.4370 c6         1 10M       0.115300
      9 O8          -5.7400     1.8070     1.2780 oh         1 10M      -0.725000
     10 C19         -6.6080    -0.4950     1.3200 c6         1 10M       0.106300
     11 O7          -7.6910    -0.0970     2.1800 oh         1 10M      -0.667000
     12 C18         -7.0240    -1.7000     0.4290 c6         1 10M       0.151300
     13 O6          -7.4260    -2.7960     1.2710 oh         1 10M      -0.720000
     14 C16         -5.8390    -2.0760    -0.5170 c6         1 10M       0.169300
     15 C17         -6.2020    -3.2440    -1.4920 c3         1 10M       0.169600
     16 O5          -5.1390    -3.5780    -2.4100 oh         1 10M      -0.720000
     17 O4          -5.4510    -0.9190    -1.3100 os         1 10M      -0.453000
     18 C12         -1.3390    -0.2750     0.0360 c6         1 10M       0.138300
     19 C13         -1.3750    -1.6900    -0.6280 c3         1 10M       0.164600
     20 O2          -0.1850    -2.4670    -0.3740 oh         1 10M      -0.712000
     21 O1          -0.1540     0.4240    -0.4290 os         1 10M      -0.413000
     22 C11          0.0530     1.7150     0.1780 c6         1 10M       0.263300
     23 S            1.6610     2.3890    -0.4350 ss         1 10M      -0.413000
     24 C10          2.8060     1.0560     0.1390 c3         1 10M       0.069600
     25 C9           4.2640     1.4150    -0.2050 c3         1 10M      -0.066400
     26 C8           5.2720     0.3380     0.2510 c3         1 10M      -0.074400
     27 C7           6.7350     0.6930    -0.0930 c3         1 10M      -0.074400
     28 C6           7.7420    -0.3850     0.3630 c3         1 10M      -0.074400
     29 C5           9.2050    -0.0290     0.0200 c3         1 10M      -0.074400
     30 C4          10.2120    -1.1070     0.4760 c3         1 10M      -0.074400
     31 C3          11.6760    -0.7510     0.1330 c3         1 10M      -0.075400
     32 C2          12.6830    -1.8290     0.5890 c3         1 10M      -0.074400
     33 C1          14.1430    -1.4740     0.2470 c3         1 10M      -0.088100
     34 HO10        -0.1140     4.2900     0.1860 ho         1 10M       0.530000
     35 H22         -1.2080     2.7350    -1.2550 h1         1 10M       0.068700
     36 H21         -2.3570     1.8390     1.4350 h1         1 10M       0.054700
     37 HO9         -3.1740     3.7570     0.1380 ho         1 10M       0.528000
     38 H14         -2.6570     0.6660    -1.3890 h1         1 10M       0.066700
     39 H15         -4.8260     1.0500    -1.2450 h2         1 10M       0.084700
     40 H20         -7.0060     1.0090    -0.1880 h1         1 10M       0.089700
     41 HO8         -4.9140     2.1900     0.8540 ho         1 10M       0.536000
     42 H19         -5.7470    -0.8060     1.9330 h1         1 10M       0.056700
     43 HO7         -7.4630     0.8220     2.4570 ho         1 10M       0.463000
     44 H18         -7.8730    -1.3880    -0.1990 h1         1 10M       0.049700
     45 HO6         -7.9030    -2.3640     2.0220 ho         1 10M       0.526000
     46 H16         -4.9800    -2.3990     0.0900 h1         1 10M       0.075700
     47 H17         -6.4640    -4.1250    -0.8910 h1         1 10M       0.037700
     48 H17A        -7.1030    -2.9530    -2.0500 h1         1 10M       0.037700
     49 HO5         -5.4920    -4.2680    -3.0200 ho         1 10M       0.505000
     50 H12         -1.2660    -0.4110     1.1250 h1         1 10M       0.060700
     51 H13         -2.2580    -2.2240    -0.2520 h1         1 10M       0.045200
     52 H13A        -1.5150    -1.5550    -1.7090 h1         1 10M       0.045200
     53 HO2         -0.2770    -3.3080    -0.8790 ho         1 10M       0.507000
     54 H11          0.1470     1.6020     1.2690 h2         1 10M       0.061700
     55 H10          2.7000     0.9330     1.2250 h1         1 10M       0.066200
     56 H10A         2.5320     0.1100    -0.3460 h1         1 10M       0.066200
     57 H9           4.3500     1.5570    -1.2890 hc         1 10M       0.053200
     58 H9A          4.5180     2.3730     0.2670 hc         1 10M       0.053200
     59 H8           5.1810     0.1960     1.3350 hc         1 10M       0.039700
     60 H8A          5.0130    -0.6190    -0.2200 hc         1 10M       0.039700
     61 H7           6.8260     0.8350    -1.1770 hc         1 10M       0.039700
     62 H7A          6.9930     1.6500     0.3780 hc         1 10M       0.039700
     63 H6           7.6510    -0.5260     1.4480 hc         1 10M       0.037200
     64 H6A          7.4840    -1.3410    -0.1080 hc         1 10M       0.037200
     65 H5           9.2960     0.1130    -1.0650 hc         1 10M       0.038200
     66 H5A          9.4630     0.9280     0.4910 hc         1 10M       0.038200
     67 H4          10.1210    -1.2480     1.5610 hc         1 10M       0.037200
     68 H4A          9.9540    -2.0640     0.0050 hc         1 10M       0.037200
     69 H3          11.7670    -0.6090    -0.9520 hc         1 10M       0.037200
     70 H3A         11.9340     0.2060     0.6040 hc         1 10M       0.037200
     71 H2          12.5960    -1.9720     1.6740 hc         1 10M       0.036700
     72 H2A         12.4290    -2.7870     0.1190 hc         1 10M       0.036700
     73 H1          14.2700    -1.3590    -0.8370 hc         1 10M       0.031367
     74 H1A         14.4390    -0.5370     0.7330 hc         1 10M       0.031367
     75 H1B         14.8190    -2.2660     0.5890 hc         1 10M       0.031367
@<TRIPOS>BOND
     1     1     2 1   
     2     1    34 1   
     3     2     3 1   
     4     2    22 1   
     5     2    35 1   
     6     3     4 1   
     7     3     5 1   
     8     3    36 1   
     9     4    37 1   
    10     5     6 1   
    11     5    18 1   
    12     5    38 1   
    13     6     7 1   
    14     7     8 1   
    15     7    17 1   
    16     7    39 1   
    17     8     9 1   
    18     8    10 1   
    19     8    40 1   
    20     9    41 1   
    21    10    11 1   
    22    10    12 1   
    23    10    42 1   
    24    11    43 1   
    25    12    13 1   
    26    12    14 1   
    27    12    44 1   
    28    13    45 1   
    29    14    15 1   
    30    14    17 1   
    31    14    46 1   
    32    15    16 1   
    33    15    47 1   
    34    15    48 1   
    35    16    49 1   
    36    18    19 1   
    37    18    21 1   
    38    18    50 1   
    39    19    20 1   
    40    19    51 1   
    41    19    52 1   
    42    20    53 1   
    43    21    22 1   
    44    22    23 1   
    45    22    54 1   
    46    23    24 1   
    47    24    25 1   
    48    24    55 1   
    49    24    56 1   
    50    25    26 1   
    51    25    57 1   
    52    25    58 1   
    53    26    27 1   
    54    26    59 1   
    55    26    60 1   
    56    27    28 1   
    57    27    61 1   
    58    27    62 1   
    59    28    29 1   
    60    28    63 1   
    61    28    64 1   
    62    29    30 1   
    63    29    65 1   
    64    29    66 1   
    65    30    31 1   
    66    30    67 1   
    67    30    68 1   
    68    31    32 1   
    69    31    69 1   
    70    31    70 1   
    71    32    33 1   
    72    32    71 1   
    73    32    72 1   
    74    33    73 1   
    75    33    74 1   
    76    33    75 1   
@<TRIPOS>SUBSTRUCTURE
     1 10M         1 TEMP              0 ****  ****    0 ROOT
