@<TRIPOS>MOLECULE
10M
   75    76     1     0     0
SMALL
abcg2


@<TRIPOS>ATOM
      1 O10         -0.5480     3.3410     1.2850 oh         1 10M      -0.725000
      2 C22         -0.9550     2.5680     0.1880 c6         1 10M       0.123300
      3 C21         -2.2860     1.9270     0.5580 c6         1 10M       0.166300
      4 O9          -3.3030     2.8900     0.7150 oh         1 10M      -0.727000
      5 C14         -2.7430     0.9350    -0.5050 c6         1 10M       0.161300
      6 O3          -3.8710     0.2740     0.0220 os         1 10M      -0.502000
      7 C15         -5.0480     0.1640    -0.7300 c6         1 10M       0.365300
      8 C20         -6.2150     0.6450     0.1350 c6         1 10M       0.115300
      9 O8          -6.0740     1.9800     0.5400 oh         1 10M      -0.725000
     10 C19         -6.4060    -0.3060     1.3140 c6         1 10M       0.106300
     11 O7          -7.5550     0.0200     2.0620 oh         1 10M      -0.667000
     12 C18         -6.5860    -1.7290     0.7960 c6         1 10M       0.151300
     13 O6          -6.6390    -2.6650     1.8450 oh         1 10M      -0.720000
     14 C16         -5.4120    -2.1060    -0.1080 c6         1 10M       0.169300
     15 C17         -5.6160    -3.4500    -0.7750 c3         1 10M       0.169600
     16 O5          -4.4590    -3.7690    -1.5120 oh         1 10M      -0.720000
     17 O4          -5.2670    -1.1470    -1.1460 os         1 10M      -0.453000
     18 C12         -1.6160    -0.0620    -0.8100 c6         1 10M       0.138300
     19 C13         -1.9500    -0.9840    -1.9630 c3         1 10M       0.164600
     20 O2          -0.8890    -1.8950    -2.1310 oh         1 10M      -0.712000
     21 O1          -0.4440     0.6470    -1.1640 os         1 10M      -0.413000
     22 C11          0.0440     1.4550    -0.1290 c6         1 10M       0.263300
     23 S            1.6180     2.1770    -0.6330 ss         1 10M      -0.413000
     24 C10          2.7760     0.9140    -0.0190 c3         1 10M       0.069600
     25 C9           4.2040     1.2840    -0.3910 c3         1 10M      -0.066400
     26 C8           5.2000     0.2760     0.1720 c3         1 10M      -0.074400
     27 C7           6.6440     0.5900    -0.2000 c3         1 10M      -0.074400
     28 C6           7.6370    -0.3940     0.4060 c3         1 10M      -0.074400
     29 C5           9.0840    -0.1080     0.0240 c3         1 10M      -0.074400
     30 C4          10.0730    -1.0730     0.6650 c3         1 10M      -0.074400
     31 C3          11.5210    -0.8020     0.2740 c3         1 10M      -0.075400
     32 C2          12.5120    -1.7550     0.9320 c3         1 10M      -0.074400
     33 C1          13.9550    -1.4780     0.5310 c3         1 10M      -0.088100
     34 HO10         0.3090     3.7330     1.0780 ho         1 10M       0.530000
     35 H22         -1.0920     3.1830    -0.7150 h1         1 10M       0.068700
     36 H21         -2.1370     1.3660     1.4940 h1         1 10M       0.054700
     37 HO9         -3.1250     3.4050     1.5090 ho         1 10M       0.528000
     38 H14         -3.0030     1.4770    -1.4250 h1         1 10M       0.066700
     39 H15         -4.9830     0.7670    -1.6430 h2         1 10M       0.084700
     40 H20         -7.1160     0.6020    -0.4870 h1         1 10M       0.089700
     41 HO8         -5.1490     2.1580     0.7770 ho         1 10M       0.536000
     42 H19         -5.5080    -0.2780     1.9500 h1         1 10M       0.056700
     43 HO7         -7.4230     0.8920     2.4480 ho         1 10M       0.463000
     44 H18         -7.5100    -1.7570     0.1940 h1         1 10M       0.049700
     45 HO6         -7.3610    -2.4170     2.4320 ho         1 10M       0.526000
     46 H16         -4.4980    -2.1520     0.4990 h1         1 10M       0.075700
     47 H17         -5.8170    -4.1940     0.0030 h1         1 10M       0.037700
     48 H17A        -6.5090    -3.4010    -1.4140 h1         1 10M       0.037700
     49 HO5         -4.5730    -4.6510    -1.8770 ho         1 10M       0.505000
     50 H12         -1.4350    -0.6680     0.0930 h1         1 10M       0.060700
     51 H13         -2.8880    -1.4990    -1.7450 h1         1 10M       0.045200
     52 H13A        -2.1150    -0.3790    -2.8660 h1         1 10M       0.045200
     53 HO2         -1.1970    -2.6040    -2.7010 ho         1 10M       0.507000
     54 H11          0.2260     0.8630     0.7810 h2         1 10M       0.061700
     55 H10          2.6700     0.8430     1.0650 h1         1 10M       0.066200
     56 H10A         2.5050    -0.0490    -0.4530 h1         1 10M       0.066200
     57 H9           4.3000     1.3320    -1.4800 hc         1 10M       0.053200
     58 H9A          4.4390     2.2810    -0.0090 hc         1 10M       0.053200
     59 H8           5.1040     0.2470     1.2630 hc         1 10M       0.039700
     60 H8A          4.9440    -0.7270    -0.1840 hc         1 10M       0.039700
     61 H7           6.7470     0.5900    -1.2900 hc         1 10M       0.039700
     62 H7A          6.8930     1.6040     0.1300 hc         1 10M       0.039700
     63 H6           7.5400    -0.3790     1.4970 hc         1 10M       0.037200
     64 H6A          7.3750    -1.4110     0.0940 hc         1 10M       0.037200
     65 H5           9.1870    -0.1500    -1.0660 hc         1 10M       0.038200
     66 H5A          9.3400     0.9170     0.3140 hc         1 10M       0.038200
     67 H4           9.9760    -1.0180     1.7550 hc         1 10M       0.037200
     68 H4A          9.8100    -2.1000     0.3890 hc         1 10M       0.037200
     69 H3          11.6220    -0.8710    -0.8150 hc         1 10M       0.037200
     70 H3A         11.7820     0.2290     0.5380 hc         1 10M       0.037200
     71 H2          12.4120    -1.6840     2.0200 hc         1 10M       0.036700
     72 H2A         12.2520    -2.7850     0.6710 hc         1 10M       0.036700
     73 H1          14.0900    -1.5800    -0.5470 hc         1 10M       0.031367
     74 H1A         14.2530    -0.4640     0.8040 hc         1 10M       0.031367
     75 H1B         14.6470    -2.1670     1.0160 hc         1 10M       0.031367
@<TRIPOS>BOND
     1     1     2 1   
     2     1    34 1   
     3     2     3 1   
     4     2    22 1   
     5     2    35 1   
     6     3     4 1   
     7     3     5 1   
     8     3    36 1   
     9     4    37 1   
    10     5     6 1   
    11     5    18 1   
    12     5    38 1   
    13     6     7 1   
    14     7     8 1   
    15     7    17 1   
    16     7    39 1   
    17     8     9 1   
    18     8    10 1   
    19     8    40 1   
    20     9    41 1   
    21    10    11 1   
    22    10    12 1   
    23    10    42 1   
    24    11    43 1   
    25    12    13 1   
    26    12    14 1   
    27    12    44 1   
    28    13    45 1   
    29    14    15 1   
    30    14    17 1   
    31    14    46 1   
    32    15    16 1   
    33    15    47 1   
    34    15    48 1   
    35    16    49 1   
    36    18    19 1   
    37    18    21 1   
    38    18    50 1   
    39    19    20 1   
    40    19    51 1   
    41    19    52 1   
    42    20    53 1   
    43    21    22 1   
    44    22    23 1   
    45    22    54 1   
    46    23    24 1   
    47    24    25 1   
    48    24    55 1   
    49    24    56 1   
    50    25    26 1   
    51    25    57 1   
    52    25    58 1   
    53    26    27 1   
    54    26    59 1   
    55    26    60 1   
    56    27    28 1   
    57    27    61 1   
    58    27    62 1   
    59    28    29 1   
    60    28    63 1   
    61    28    64 1   
    62    29    30 1   
    63    29    65 1   
    64    29    66 1   
    65    30    31 1   
    66    30    67 1   
    67    30    68 1   
    68    31    32 1   
    69    31    69 1   
    70    31    70 1   
    71    32    33 1   
    72    32    71 1   
    73    32    72 1   
    74    33    73 1   
    75    33    74 1   
    76    33    75 1   
@<TRIPOS>SUBSTRUCTURE
     1 10M         1 TEMP              0 ****  ****    0 ROOT
