@<TRIPOS>MOLECULE
10N
   51    54     1     0     0
SMALL
abcg2


@<TRIPOS>ATOM
      1 N1           3.1170     3.6420     0.1810 nb         1 10N      -0.719000
      2 C2           2.1640     4.5390     0.1050 ca         1 10N       0.442900
      3 C3           0.8010     4.2380    -0.0580 ca         1 10N      -0.238000
      4 C4           0.3470     2.8970    -0.1620 ca         1 10N       0.463000
      5 N5          -0.9590     2.6340    -0.3260 nu         1 10N      -0.958200
      6 C6          -1.5550     1.3570    -0.6170 c3         1 10N       0.276100
      7 C7          -1.8670     0.5220     0.6030 ca         1 10N      -0.103300
      8 C8          -1.4440     0.8620     1.8810 ca         1 10N      -0.055000
      9 C9          -1.7700     0.0450     2.9520 ca         1 10N      -0.146000
     10 C10         -2.5210    -1.0940     2.7120 ca         1 10N       0.352900
     11 N11         -2.9400    -1.4270     1.4990 nb         1 10N      -0.704000
     12 C12         -2.6170    -0.6470     0.4850 ca         1 10N       0.529900
     13 N13         -3.1270    -1.0080    -0.7980 nh         1 10N      -0.720200
     14 S14         -2.2800    -2.1790    -1.6190 s6         1 10N       1.200100
     15 O15         -2.7410    -2.1530    -2.9980 o          1 10N      -0.536500
     16 O16         -0.8740    -1.9360    -1.3330 o          1 10N      -0.536500
     17 C17         -2.7400    -3.7440    -0.9150 c3         1 10N      -0.369100
     18 C18         -4.5850    -1.0180    -0.9170 c3         1 10N       0.185100
     19 C19          1.3630     1.9220    -0.0720 ca         1 10N      -0.219800
     20 C20          2.6860     2.3820     0.0990 ca         1 10N       0.412500
     21 N21          3.4900     1.3000     0.1830 na         1 10N      -0.307400
     22 C22          2.7460     0.1490     0.0760 cc         1 10N      -0.018300
     23 C23          1.4300     0.4960    -0.0790 cd         1 10N      -0.189200
     24 C24          3.3480    -1.1770     0.1600 ca         1 10N      -0.035800
     25 C25          4.5890    -1.3750     0.7700 ca         1 10N      -0.098000
     26 C26          5.1420    -2.6440     0.8520 ca         1 10N      -0.110500
     27 C27          4.4630    -3.7390     0.3340 ca         1 10N      -0.106000
     28 C28          3.2250    -3.5530    -0.2710 ca         1 10N      -0.110500
     29 C29          2.6750    -2.2850    -0.3620 ca         1 10N      -0.098000
     30 C30         -0.1240     5.3060    -0.1380 cg         1 10N       0.341000
     31 N31         -0.8890     6.1690    -0.2070 n1         1 10N      -0.489000
     32 H1           2.4580     5.5810     0.1730 h4         1 10N       0.026100
     33 H2          -1.5970     3.4140    -0.3120 hn         1 10N       0.503000
     34 H3          -2.4790     1.5550    -1.1600 h1         1 10N       0.081200
     35 H4          -0.9240     0.7980    -1.3090 h1         1 10N       0.081200
     36 H5          -0.8670     1.7610     2.0470 ha         1 10N       0.139000
     37 H6          -1.4500     0.2890     3.9550 ha         1 10N       0.134000
     38 H7          -2.7970    -1.7580     3.5230 h4         1 10N       0.027100
     39 H8          -3.8050    -3.9090    -1.0620 h1         1 10N       0.106367
     40 H9          -2.1740    -4.5160    -1.4350 h1         1 10N       0.106367
     41 H10         -2.5010    -3.7500     0.1450 h1         1 10N       0.106367
     42 H11         -4.8740    -1.1930    -1.9500 h1         1 10N       0.058367
     43 H12         -5.0540    -1.7660    -0.2760 h1         1 10N       0.058367
     44 H13         -4.9550    -0.0350    -0.6330 h1         1 10N       0.058367
     45 H14          4.4950     1.3530     0.2500 hn         1 10N       0.363000
     46 H15          0.6200    -0.2090    -0.1430 ha         1 10N       0.227000
     47 H16          5.1280    -0.5430     1.2070 ha         1 10N       0.124000
     48 H17          6.1030    -2.7780     1.3310 ha         1 10N       0.114000
     49 H18          4.8930    -4.7290     0.4020 ha         1 10N       0.113000
     50 H19          2.6890    -4.3980    -0.6810 ha         1 10N       0.114000
     51 H20          1.7210    -2.1540    -0.8570 ha         1 10N       0.124000
@<TRIPOS>BOND
     1     1     2 ar  
     2     1    20 ar  
     3     2     3 ar  
     4     2    32 1   
     5     3     4 ar  
     6     3    30 1   
     7     4     5 1   
     8     4    19 ar  
     9     5     6 1   
    10     5    33 1   
    11     6     7 1   
    12     6    34 1   
    13     6    35 1   
    14     7     8 ar  
    15     7    12 ar  
    16     8     9 ar  
    17     8    36 1   
    18     9    10 ar  
    19     9    37 1   
    20    10    11 ar  
    21    10    38 1   
    22    11    12 ar  
    23    12    13 1   
    24    13    14 1   
    25    13    18 1   
    26    14    15 2   
    27    14    16 2   
    28    14    17 1   
    29    17    39 1   
    30    17    40 1   
    31    17    41 1   
    32    18    42 1   
    33    18    43 1   
    34    18    44 1   
    35    19    20 ar  
    36    19    23 1   
    37    20    21 1   
    38    21    22 1   
    39    21    45 1   
    40    22    23 2   
    41    22    24 1   
    42    23    46 1   
    43    24    25 ar  
    44    24    29 ar  
    45    25    26 ar  
    46    25    47 1   
    47    26    27 ar  
    48    26    48 1   
    49    27    28 ar  
    50    27    49 1   
    51    28    29 ar  
    52    28    50 1   
    53    29    51 1   
    54    30    31 3   
@<TRIPOS>SUBSTRUCTURE
     1 10N         1 TEMP              0 ****  ****    0 ROOT
