@<TRIPOS>MOLECULE
10N
   51    54     1     0     0
SMALL
No Charge or Current Charge


@<TRIPOS>ATOM
      1 N1           3.0800     3.7530     0.3970 nb         1 10N      -0.719000
      2 C2           2.1180     4.6900     0.2370 ca         1 10N       0.442900
      3 C3           0.7760     4.3840    -0.0300 ca         1 10N      -0.238000
      4 C4           0.3870     3.0390    -0.1460 ca         1 10N       0.463000
      5 N5          -0.9610     2.7260    -0.3990 nu         1 10N      -0.958200
      6 C6          -1.5940     1.4250    -0.7030 c3         1 10N       0.276100
      7 C7          -1.8470     0.5410     0.5250 ca         1 10N      -0.103300
      8 C8          -1.4350     0.9090     1.8260 ca         1 10N      -0.055000
      9 C9          -1.7420     0.0530     2.8950 ca         1 10N      -0.146000
     10 C10         -2.4580    -1.1260     2.6430 ca         1 10N       0.352900
     11 N11         -2.8610    -1.4870     1.4060 nb         1 10N      -0.704000
     12 C12         -2.5410    -0.6830     0.3750 ca         1 10N       0.529900
     13 N13         -3.0340    -1.1140    -0.8500 nh         1 10N      -0.720200
     14 S14         -2.0620    -2.2010    -1.7600 s6         1 10N       1.200100
     15 O15         -2.7740    -2.4670    -3.0150 o          1 10N      -0.536500
     16 O16         -0.7120    -1.6340    -1.7920 o          1 10N      -0.536500
     17 C17         -2.0110    -3.7100    -0.8100 c3         1 10N      -0.369100
     18 C18         -4.4900    -1.1860    -1.0660 c3         1 10N       0.185100
     19 C19          1.4080     2.0840     0.0230 ca         1 10N      -0.219800
     20 C20          2.7030     2.4730     0.2880 ca         1 10N       0.412500
     21 N21          3.4810     1.3400     0.4140 na         1 10N      -0.307400
     22 C22          2.7130     0.1810     0.2470 cc         1 10N      -0.018300
     23 C23          1.4340     0.6300    -0.0090 cd         1 10N      -0.189200
     24 C24          3.1350    -1.2250     0.2680 ca         1 10N      -0.035800
     25 C25          4.5090    -1.5460     0.2190 ca         1 10N      -0.098000
     26 C26          4.9340    -2.8860     0.2390 ca         1 10N      -0.110500
     27 C27          3.9900    -3.9230     0.3120 ca         1 10N      -0.106000
     28 C28          2.6210    -3.6180     0.3670 ca         1 10N      -0.110500
     29 C29          2.1950    -2.2780     0.3470 ca         1 10N      -0.098000
     30 C30         -0.1450     5.4660    -0.1730 cg         1 10N       0.341000
     31 N31         -0.9080     6.3400    -0.2910 n1         1 10N      -0.489000
     32 H1           2.4450     5.7250     0.3300 h4         1 10N       0.026100
     33 H2          -1.5770     3.5380    -0.4650 hn         1 10N       0.503000
     34 H3          -2.5720     1.6090    -1.1700 h1         1 10N       0.081200
     35 H4          -1.0020     0.8840    -1.4530 h1         1 10N       0.081200
     36 H5          -0.8980     1.8340     2.0190 ha         1 10N       0.139000
     37 H6          -1.4430     0.3000     3.9090 ha         1 10N       0.134000
     38 H7          -2.7200    -1.8010     3.4560 h4         1 10N       0.027100
     39 H8          -3.0440    -4.0330    -0.6510 h1         1 10N       0.106367
     40 H9          -1.4470    -4.4440    -1.3940 h1         1 10N       0.106367
     41 H10         -1.5100    -3.4890     0.1370 h1         1 10N       0.106367
     42 H11         -4.7440    -0.8920    -2.0930 h1         1 10N       0.058367
     43 H12         -4.8640    -2.2020    -0.8840 h1         1 10N       0.058367
     44 H13         -5.0140    -0.5000    -0.3860 h1         1 10N       0.058367
     45 H14          4.4720     1.3680     0.6080 hn         1 10N       0.363000
     46 H15          0.6020    -0.0240    -0.2280 ha         1 10N       0.227000
     47 H16          5.2550    -0.7580     0.1580 ha         1 10N       0.124000
     48 H17          5.9950    -3.1200     0.1970 ha         1 10N       0.114000
     49 H18          4.3190    -4.9600     0.3280 ha         1 10N       0.113000
     50 H19          1.8880    -4.4190     0.4280 ha         1 10N       0.114000
     51 H20          1.1310    -2.0720     0.4040 ha         1 10N       0.124000
@<TRIPOS>BOND
     1     1     2 ar  
     2     1    20 ar  
     3     2     3 ar  
     4     2    32 1   
     5     3     4 ar  
     6     3    30 1   
     7     4     5 1   
     8     4    19 ar  
     9     5     6 1   
    10     5    33 1   
    11     6     7 1   
    12     6    34 1   
    13     6    35 1   
    14     7     8 ar  
    15     7    12 ar  
    16     8     9 ar  
    17     8    36 1   
    18     9    10 ar  
    19     9    37 1   
    20    10    11 ar  
    21    10    38 1   
    22    11    12 ar  
    23    12    13 1   
    24    13    14 1   
    25    13    18 1   
    26    14    15 2   
    27    14    16 2   
    28    14    17 1   
    29    17    39 1   
    30    17    40 1   
    31    17    41 1   
    32    18    42 1   
    33    18    43 1   
    34    18    44 1   
    35    19    20 ar  
    36    19    23 1   
    37    20    21 1   
    38    21    22 1   
    39    21    45 1   
    40    22    23 2   
    41    22    24 1   
    42    23    46 1   
    43    24    25 ar  
    44    24    29 ar  
    45    25    26 ar  
    46    25    47 1   
    47    26    27 ar  
    48    26    48 1   
    49    27    28 ar  
    50    27    49 1   
    51    28    29 ar  
    52    28    50 1   
    53    29    51 1   
    54    30    31 3   
@<TRIPOS>SUBSTRUCTURE
     1 10N         1 TEMP              0 ****  ****    0 ROOT
