@<TRIPOS>MOLECULE
10O
   55    59     1     0     0
SMALL
No Charge or Current Charge


@<TRIPOS>ATOM
      1 C1          -0.7690     0.6710    -0.1470 c5         1 10O       0.307500
      2 C2          -1.5730     1.4700    -1.1940 c5         1 10O      -0.167700
      3 N1          -0.6910     3.4810    -0.0570 n          1 10O      -0.382300
      4 C3          -0.2110     2.6440     0.9500 c2         1 10O       0.690800
      5 C4          -1.1570     2.9410    -1.2720 c          1 10O       0.590000
      6 N2          -0.8790     1.4880     1.0890 nu         1 10O      -0.898400
      7 C5           0.6360     0.2870    -0.5780 cc         1 10O      -0.259300
      8 N3          -3.0850    -0.0530    -0.2480 nh         1 10O      -0.802300
      9 C6          -1.7120    -0.5800     0.0510 c5         1 10O       0.247800
     10 C7          -3.0410     1.3590    -0.6980 c5         1 10O       0.255800
     11 C8           1.7300     0.2000     0.2500 cd         1 10O      -0.098000
     12 C9           2.9410    -0.2030    -0.3980 cd         1 10O      -0.062000
     13 S1           1.0630    -0.1700    -2.2190 ss         1 10O       0.241000
     14 C10          2.7330    -0.4350    -1.7420 cc         1 10O      -0.226000
     15 C11         -4.2640    -0.7540     0.0290 ca         1 10O       0.673900
     16 N4           8.7040    -1.7550    -1.1900 n1         1 10O      -0.450000
     17 N5           0.4760     3.0100     1.9430 n2         1 10O      -0.887100
     18 C12          4.2550    -0.3630     0.2760 ca         1 10O      -0.015000
     19 C13          7.7830    -1.3940    -0.5680 cg         1 10O       0.322000
     20 O1          -1.1850     3.5950    -2.3070 o          1 10O      -0.523000
     21 N6          -4.0800    -2.0400     0.3490 nb         1 10O      -0.842000
     22 C14          5.3920    -0.7970    -0.4460 ca         1 10O      -0.064000
     23 C15         -0.4600     4.9470    -0.0050 c3         1 10O       0.072300
     24 C16          6.6420    -0.9510     0.1860 ca         1 10O      -0.017000
     25 C17          4.4100    -0.0870     1.6550 ca         1 10O      -0.079000
     26 C18         -5.5310    -0.1530    -0.0320 ca         1 10O      -0.276000
     27 C19          5.6550    -0.2400     2.2880 ca         1 10O      -0.112000
     28 C20         -5.1680    -2.7810     0.6240 ca         1 10O       0.632300
     29 C21          6.7710    -0.6710     1.5570 ca         1 10O      -0.069000
     30 C22         -6.6660    -0.9200     0.2540 ca         1 10O      -0.005000
     31 C23         -6.4680    -2.2630     0.5880 ca         1 10O      -0.245000
     32 O2          -5.0230    -4.1070     0.9580 os         1 10O      -0.460300
     33 C24         -3.7220    -4.7240     1.0200 c3         1 10O       0.161900
     34 H1          -1.5180     1.0380    -2.1970 hc         1 10O       0.100700
     35 H2          -1.4450    -1.3780    -0.6550 h1         1 10O       0.069200
     36 H3          -1.6260    -0.9900     1.0670 h1         1 10O       0.069200
     37 H4          -3.2600     2.0500     0.1290 h1         1 10O       0.060200
     38 H5          -3.7480     1.5640    -1.5150 h1         1 10O       0.060200
     39 H6           1.6650     0.4200     1.3090 ha         1 10O       0.145000
     40 H7           3.4290    -0.7490    -2.5060 h4         1 10O       0.158000
     41 H8           0.7840     3.9740     1.7720 hn         1 10O       0.405400
     42 H10          5.3190    -1.0210    -1.5060 ha         1 10O       0.126000
     43 H11          0.5440     5.1780    -0.3840 h1         1 10O       0.054700
     44 H12         -1.2040     5.4760    -0.6140 h1         1 10O       0.054700
     45 H13         -0.5520     5.3130     1.0260 h1         1 10O       0.054700
     46 H14          3.5730     0.2520     2.2560 ha         1 10O       0.121000
     47 H15         -5.6420     0.8940    -0.2910 ha         1 10O       0.125000
     48 H16          5.7540    -0.0220     3.3490 ha         1 10O       0.123000
     49 H17          7.7320    -0.7870     2.0560 ha         1 10O       0.128000
     50 H18         -7.6650    -0.4870     0.2190 ha         1 10O       0.116000
     51 H19         -7.3110    -2.9070     0.8200 ha         1 10O       0.138000
     52 H20         -3.2180    -4.6760     0.0450 h1         1 10O       0.043700
     53 H21         -3.0880    -4.2280     1.7660 h1         1 10O       0.043700
     54 H22         -3.8140    -5.7800     1.3020 h1         1 10O       0.043700
     55 H23         -0.6480     1.0570     1.9750 hn         1 10O       0.509000
@<TRIPOS>BOND
     1     1     2 1   
     2     1     6 1   
     3     1     7 1   
     4     1     9 1   
     5     2     5 1   
     6     2    10 1   
     7     2    34 1   
     8     3     4 1   
     9     3     5 1   
    10     3    23 1   
    11     4     6 1   
    12     4    17 2   
    13     5    20 2   
    14     6    55 1   
    15     7    11 2   
    16     7    13 1   
    17     8     9 1   
    18     8    10 1   
    19     8    15 1   
    20     9    35 1   
    21     9    36 1   
    22    10    37 1   
    23    10    38 1   
    24    11    12 1   
    25    11    39 1   
    26    12    14 2   
    27    12    18 1   
    28    13    14 1   
    29    14    40 1   
    30    15    21 ar  
    31    15    26 ar  
    32    16    19 3   
    33    17    41 1   
    34    18    22 ar  
    35    18    25 ar  
    36    19    24 1   
    37    21    28 ar  
    38    22    24 ar  
    39    22    42 1   
    40    23    43 1   
    41    23    44 1   
    42    23    45 1   
    43    24    29 ar  
    44    25    27 ar  
    45    25    46 1   
    46    26    30 ar  
    47    26    47 1   
    48    27    29 ar  
    49    27    48 1   
    50    28    31 ar  
    51    28    32 1   
    52    29    49 1   
    53    30    31 ar  
    54    30    50 1   
    55    31    51 1   
    56    32    33 1   
    57    33    52 1   
    58    33    53 1   
    59    33    54 1   
@<TRIPOS>SUBSTRUCTURE
     1 10O         1 TEMP              0 ****  ****    0 ROOT
