@<TRIPOS>MOLECULE
10O
   55    59     1     0     0
SMALL
abcg2


@<TRIPOS>ATOM
      1 C1          -0.8270     0.4900    -0.1900 c5         1 10O       0.307500
      2 C2          -1.5440     1.4730    -1.1140 c5         1 10O      -0.167700
      3 N1          -0.4890     3.2200     0.2400 n          1 10O      -0.382300
      4 C3          -0.4710     2.3640     1.3540 c2         1 10O       0.690800
      5 C4          -1.0680     2.8910    -0.9600 c          1 10O       0.590000
      6 N2          -0.8770     1.0820     1.1200 nu         1 10O      -0.898400
      7 C5           0.5840     0.1660    -0.6030 cc         1 10O      -0.259300
      8 N3          -3.0730    -0.1060    -0.3500 nh         1 10O      -0.802300
      9 C6          -1.7690    -0.7140    -0.2160 c5         1 10O       0.247800
     10 C7          -3.0210     1.2820    -0.7540 c5         1 10O       0.255800
     11 C8           1.7090     0.2610     0.1550 cd         1 10O      -0.098000
     12 C9           2.8950    -0.1360    -0.5360 cd         1 10O      -0.062000
     13 S1           0.9610    -0.4060    -2.1860 ss         1 10O       0.241000
     14 C10          2.6250    -0.5220    -1.8180 cc         1 10O      -0.226000
     15 C11         -4.2240    -0.7570    -0.0580 ca         1 10O       0.673900
     16 N4           8.2470    -2.7180    -0.5280 n1         1 10O      -0.450000
     17 N5          -0.1300     2.7070     2.5300 n2         1 10O      -0.887100
     18 C12          4.2340    -0.1260     0.0670 ca         1 10O      -0.015000
     19 C13          7.4510    -1.9610    -0.1790 cg         1 10O       0.322000
     20 O1          -1.1900     3.6930    -1.8610 o          1 10O      -0.523000
     21 N6          -4.0980    -2.0410     0.2970 nb         1 10O      -0.842000
     22 C14          5.2040    -1.0380    -0.3370 ca         1 10O      -0.064000
     23 C15          0.0510     4.5580     0.4230 c3         1 10O       0.072300
     24 C16          6.4690    -1.0160     0.2450 ca         1 10O      -0.017000
     25 C17          4.5610     0.7970     1.0630 ca         1 10O      -0.079000
     26 C18         -5.4750    -0.1260    -0.1250 ca         1 10O      -0.276000
     27 C19          5.8190     0.8100     1.6460 ca         1 10O      -0.112000
     28 C20         -5.1760    -2.7320     0.5980 ca         1 10O       0.632300
     29 C21          6.7860    -0.0960     1.2440 ca         1 10O      -0.069000
     30 C22         -6.5900    -0.8840     0.1900 ca         1 10O      -0.005000
     31 C23         -6.4710    -2.2110     0.5610 ca         1 10O      -0.245000
     32 O2          -5.0390    -4.0120     0.9590 os         1 10O      -0.460300
     33 C24         -3.7310    -4.5610     1.0090 c3         1 10O       0.161900
     34 H1          -1.3940     1.1920    -2.1590 hc         1 10O       0.100700
     35 H2          -1.5370    -1.3740    -1.0590 h1         1 10O       0.069200
     36 H3          -1.6840    -1.3140     0.6910 h1         1 10O       0.069200
     37 H4          -3.3390     1.9480     0.0550 h1         1 10O       0.060200
     38 H5          -3.6580     1.4830    -1.6180 h1         1 10O       0.060200
     39 H6           1.7020     0.5800     1.1880 ha         1 10O       0.145000
     40 H7           3.3210    -0.8470    -2.5770 h4         1 10O       0.158000
     41 H8           0.0570     3.6950     2.6280 hn         1 10O       0.405400
     42 H10          4.9780    -1.7810    -1.0900 ha         1 10O       0.126000
     43 H11          1.0470     4.4990     0.8570 h1         1 10O       0.054700
     44 H12          0.1260     5.0510    -0.5390 h1         1 10O       0.054700
     45 H13         -0.5880     5.1600     1.0700 h1         1 10O       0.054700
     46 H14          3.8280     1.5250     1.3850 ha         1 10O       0.121000
     47 H15         -5.5750     0.9130    -0.4050 ha         1 10O       0.125000
     48 H16          6.0460     1.5340     2.4160 ha         1 10O       0.123000
     49 H17          7.7650    -0.1030     1.7020 ha         1 10O       0.128000
     50 H18         -7.5710    -0.4270     0.1450 ha         1 10O       0.116000
     51 H19         -7.3290    -2.8190     0.8110 ha         1 10O       0.138000
     52 H20         -3.2400    -4.5350     0.0360 h1         1 10O       0.043700
     53 H21         -3.0980    -4.0420     1.7300 h1         1 10O       0.043700
     54 H22         -3.8550    -5.5950     1.3210 h1         1 10O       0.043700
     55 H23         -0.7650     0.4690     1.9150 hn         1 10O       0.509000
@<TRIPOS>BOND
     1     1     2 1   
     2     1     6 1   
     3     1     7 1   
     4     1     9 1   
     5     2     5 1   
     6     2    10 1   
     7     2    34 1   
     8     3     4 1   
     9     3     5 1   
    10     3    23 1   
    11     4     6 1   
    12     4    17 2   
    13     5    20 2   
    14     6    55 1   
    15     7    11 2   
    16     7    13 1   
    17     8     9 1   
    18     8    10 1   
    19     8    15 1   
    20     9    35 1   
    21     9    36 1   
    22    10    37 1   
    23    10    38 1   
    24    11    12 1   
    25    11    39 1   
    26    12    14 2   
    27    12    18 1   
    28    13    14 1   
    29    14    40 1   
    30    15    21 ar  
    31    15    26 ar  
    32    16    19 3   
    33    17    41 1   
    34    18    22 ar  
    35    18    25 ar  
    36    19    24 1   
    37    21    28 ar  
    38    22    24 ar  
    39    22    42 1   
    40    23    43 1   
    41    23    44 1   
    42    23    45 1   
    43    24    29 ar  
    44    25    27 ar  
    45    25    46 1   
    46    26    30 ar  
    47    26    47 1   
    48    27    29 ar  
    49    27    48 1   
    50    28    31 ar  
    51    28    32 1   
    52    29    49 1   
    53    30    31 ar  
    54    30    50 1   
    55    31    51 1   
    56    32    33 1   
    57    33    52 1   
    58    33    53 1   
    59    33    54 1   
@<TRIPOS>SUBSTRUCTURE
     1 10O         1 TEMP              0 ****  ****    0 ROOT
