@<TRIPOS>MOLECULE
10P
   54    56     1     0     0
SMALL
abcg2


@<TRIPOS>ATOM
      1 N22          3.0210    -1.9540    -0.8110 n8         1 10P      -0.974200
      2 C3           2.6760    -0.6770    -0.2350 c3         1 10P       0.105500
      3 C4           1.3150    -0.6750     0.4650 c          1 10P       0.567100
      4 O24          0.8780    -1.6890     0.9970 o          1 10P      -0.620100
      5 C2           3.7400    -0.2570     0.7960 c3         1 10P      -0.020100
      6 C1           5.0760    -0.0000     0.1620 ca         1 10P      -0.080300
      7 C5           5.3900     1.2680    -0.3220 ca         1 10P      -0.097000
      8 C9           6.0160    -1.0170     0.0170 ca         1 10P      -0.097000
      9 C6           6.6100     1.5170    -0.9360 ca         1 10P      -0.108500
     10 C8           7.2390    -0.7740    -0.5930 ca         1 10P      -0.108500
     11 C7           7.5400     0.4950    -1.0740 ca         1 10P      -0.102000
     12 N23          0.6340     0.4800     0.5130 n          1 10P      -0.399800
     13 C10         -0.6510     0.5280     1.1830 c5         1 10P       0.033700
     14 C11         -1.6310    -0.4530     0.5620 c          1 10P       0.599100
     15 O25         -1.6670    -0.6690    -0.6360 o          1 10P      -0.583100
     16 C14         -1.1280     1.9740     0.9660 c5         1 10P      -0.087400
     17 C15          0.1650     2.7470     0.7340 c5         1 10P      -0.093400
     18 C16          1.0130     1.7660    -0.0610 c5         1 10P       0.107000
     19 C12         -3.5690    -1.8530     0.9510 c3         1 10P       0.148300
     20 C13         -4.5770    -1.1380     0.0870 ca         1 10P      -0.080300
     21 C17         -4.9640     0.1510     0.3900 ca         1 10P      -0.017300
     22 C19         -6.4530     0.2150    -1.4070 ca         1 10P      -0.070000
     23 C20         -6.1150    -1.0710    -1.7580 ca         1 10P      -0.107000
     24 C21         -5.1700    -1.7520    -1.0090 ca         1 10P       0.016000
     25 N26         -2.5230    -0.9850     1.4180 ns         1 10P      -0.520900
     26 N27         -5.8770     0.7950    -0.3470 na         1 10P       0.071300
     27 HN22         2.9260    -2.6810    -0.1110 hn         1 10P       0.410500
     28 HN2A         2.3700    -2.1880    -1.5500 hn         1 10P       0.410500
     29 H3           2.6750     0.0560    -1.0470 h1         1 10P       0.075700
     30 H2           3.8190    -1.0440     1.5510 hc         1 10P       0.052200
     31 H2A          3.4070     0.6410     1.3220 hc         1 10P       0.052200
     32 H5           4.6720     2.0740    -0.2150 ha         1 10P       0.106000
     33 H9           5.7900    -2.0090     0.3890 ha         1 10P       0.106000
     34 H6           6.8370     2.5100    -1.3020 ha         1 10P       0.115000
     35 H8           7.9580    -1.5760    -0.6950 ha         1 10P       0.115000
     36 H7           8.4930     0.6860    -1.5500 ha         1 10P       0.117000
     37 H10         -0.5290     0.3210     2.2520 h1         1 10P       0.076700
     38 H14         -1.7600     2.0370     0.0770 hc         1 10P       0.049200
     39 H14A        -1.7030     2.3410     1.8150 hc         1 10P       0.049200
     40 H15          0.0090     3.6850     0.2040 hc         1 10P       0.067200
     41 H15A         0.6510     2.9730     1.6860 hc         1 10P       0.067200
     42 H16          0.7690     1.8050    -1.1270 h1         1 10P       0.063200
     43 H16A         2.0780     1.9620     0.0520 h1         1 10P       0.063200
     44 H12         -4.0770    -2.2610     1.8250 h1         1 10P       0.087700
     45 H12A        -3.1600    -2.6990     0.3960 h1         1 10P       0.087700
     46 H17         -4.5540     0.6970     1.2280 h4         1 10P       0.179000
     47 H18         -5.4990     2.8500    -0.4820 h1         1 10P       0.095367
     48 H18A        -7.2150     2.4040    -0.3640 h1         1 10P       0.095367
     49 H18B        -6.1810     2.3070     1.0690 h1         1 10P       0.095367
     50 H19         -7.1760     0.8010    -1.9540 h4         1 10P       0.184000
     51 H20         -6.5880    -1.5250    -2.6150 ha         1 10P       0.179000
     52 H21         -4.8900    -2.7610    -1.2800 ha         1 10P       0.171000
     53 HN26        -2.4270    -0.8300     2.4080 hn         1 10P       0.337500
     54 C18         -6.2150     2.1830    -0.0090 c3         1 10P       0.011900
@<TRIPOS>BOND
     1     1     2 1   
     2     1    27 1   
     3     1    28 1   
     4     2     3 1   
     5     2     5 1   
     6     2    29 1   
     7     3     4 2   
     8     3    12 1   
     9     5     6 1   
    10     5    30 1   
    11     5    31 1   
    12     6     7 ar  
    13     6     8 ar  
    14     7     9 ar  
    15     7    32 1   
    16     8    10 ar  
    17     8    33 1   
    18     9    11 ar  
    19     9    34 1   
    20    10    11 ar  
    21    10    35 1   
    22    11    36 1   
    23    12    13 1   
    24    12    18 1   
    25    13    14 1   
    26    13    16 1   
    27    13    37 1   
    28    14    15 2   
    29    14    25 1   
    30    16    17 1   
    31    16    38 1   
    32    16    39 1   
    33    17    18 1   
    34    17    40 1   
    35    17    41 1   
    36    18    42 1   
    37    18    43 1   
    38    19    20 1   
    39    19    25 1   
    40    19    44 1   
    41    19    45 1   
    42    20    21 ar  
    43    20    24 ar  
    44    21    26 2   
    45    21    46 1   
    46    22    23 ar  
    47    22    26 1   
    48    22    50 1   
    49    23    24 ar  
    50    23    51 1   
    51    24    52 1   
    52    25    53 1   
    53    26    54 1   
    54    47    54 1   
    55    48    54 1   
    56    49    54 1   
@<TRIPOS>SUBSTRUCTURE
     1 10P         1 TEMP              0 ****  ****    0 ROOT
