@<TRIPOS>MOLECULE
10P
   54    56     1     0     0
SMALL
No Charge or Current Charge


@<TRIPOS>ATOM
      1 N22          3.3550    -2.2560    -0.7250 n8         1 10P      -0.974200
      2 C3           2.9850    -0.9080    -0.1590 c3         1 10P       0.105500
      3 C4           1.5660    -0.8430     0.5260 c          1 10P       0.567100
      4 O24          1.1000    -1.8240     1.0970 o          1 10P      -0.620100
      5 C2           4.0810    -0.4070     0.8210 c3         1 10P      -0.020100
      6 C1           5.4190    -0.1130     0.1460 ca         1 10P      -0.080300
      7 C5           5.5620     1.0190    -0.6810 ca         1 10P      -0.097000
      8 C9           6.5280    -0.9590     0.3550 ca         1 10P      -0.097000
      9 C6           6.7950     1.2990    -1.2960 ca         1 10P      -0.108500
     10 C8           7.7610    -0.6780    -0.2600 ca         1 10P      -0.108500
     11 C7           7.8950     0.4500    -1.0860 ca         1 10P      -0.102000
     12 N23          0.8230     0.3610     0.4620 n          1 10P      -0.399800
     13 C10         -0.5650     0.4770     1.0020 c5         1 10P       0.033700
     14 C11         -1.6010    -0.5450     0.4290 c          1 10P       0.599100
     15 O25         -1.5280    -1.1790    -0.6160 o          1 10P      -0.583100
     16 C14         -0.9730     1.9020     0.5130 c5         1 10P      -0.087400
     17 C15          0.3770     2.6570     0.5300 c5         1 10P      -0.093400
     18 C16          1.3220     1.6230    -0.1280 c5         1 10P       0.107000
     19 C12         -3.8530    -1.4760     1.0480 c3         1 10P       0.148300
     20 C13         -4.8650    -0.7610     0.1650 ca         1 10P      -0.080300
     21 C17         -5.8170     0.1110     0.7350 ca         1 10P      -0.017300
     22 C19         -6.7250     0.5930    -1.4440 ca         1 10P      -0.070000
     23 C20         -5.7840    -0.2690    -2.0370 ca         1 10P      -0.107000
     24 C21         -4.8520    -0.9490    -1.2320 ca         1 10P       0.016000
     25 N26         -2.6760    -0.6390     1.2890 ns         1 10P      -0.520900
     26 N27         -6.7510     0.7820    -0.0600 na         1 10P       0.071300
     27 HN22         3.2560    -2.9570     0.0200 hn         1 10P       0.410500
     28 HN2A         2.6380    -2.5450    -1.4010 hn         1 10P       0.410500
     29 H3           2.9530    -0.2110    -1.0070 h1         1 10P       0.075700
     30 H2           4.2070    -1.1460     1.6220 hc         1 10P       0.052200
     31 H2A          3.7310     0.5030     1.3230 hc         1 10P       0.052200
     32 H5           4.7180     1.6840    -0.8480 ha         1 10P       0.106000
     33 H9           6.4340    -1.8360     0.9920 ha         1 10P       0.106000
     34 H6           6.8980     2.1740    -1.9340 ha         1 10P       0.115000
     35 H8           8.6110    -1.3360    -0.0960 ha         1 10P       0.115000
     36 H7           8.8490     0.6670    -1.5620 ha         1 10P       0.117000
     37 H10         -0.5510     0.4110     2.0980 h1         1 10P       0.076700
     38 H14         -1.3870     1.8770    -0.5030 hc         1 10P       0.049200
     39 H14A        -1.7270     2.3670     1.1580 hc         1 10P       0.049200
     40 H15          0.3430     3.6040    -0.0210 hc         1 10P       0.067200
     41 H15A         0.6920     2.8840     1.5550 hc         1 10P       0.067200
     42 H16          1.2120     1.6120    -1.2210 h1         1 10P       0.063200
     43 H16A         2.3710     1.8320     0.1160 h1         1 10P       0.063200
     44 H12         -4.3160    -1.7280     2.0120 h1         1 10P       0.087700
     45 H12A        -3.5430    -2.4200     0.5780 h1         1 10P       0.087700
     46 H17         -5.8480     0.2900     1.8110 h4         1 10P       0.179000
     47 H18         -7.2900     2.7030     0.6240 h1         1 10P       0.095367
     48 H18A        -8.6360     1.7450    -0.0620 h1         1 10P       0.095367
     49 H18B        -7.9970     1.3480     1.5540 h1         1 10P       0.095367
     50 H19         -7.4560     1.1360    -2.0470 h4         1 10P       0.184000
     51 H20         -5.7740    -0.4080    -3.1170 ha         1 10P       0.179000
     52 H21         -4.1210    -1.6110    -1.6920 ha         1 10P       0.171000
     53 HN26        -2.6470    -0.0740     2.1300 hn         1 10P       0.337500
     54 C18         -7.7270     1.6990     0.5510 c3         1 10P       0.011900
@<TRIPOS>BOND
     1     1     2 1   
     2     1    27 1   
     3     1    28 1   
     4     2     3 1   
     5     2     5 1   
     6     2    29 1   
     7     3     4 2   
     8     3    12 1   
     9     5     6 1   
    10     5    30 1   
    11     5    31 1   
    12     6     7 ar  
    13     6     8 ar  
    14     7     9 ar  
    15     7    32 1   
    16     8    10 ar  
    17     8    33 1   
    18     9    11 ar  
    19     9    34 1   
    20    10    11 ar  
    21    10    35 1   
    22    11    36 1   
    23    12    13 1   
    24    12    18 1   
    25    13    14 1   
    26    13    16 1   
    27    13    37 1   
    28    14    15 2   
    29    14    25 1   
    30    16    17 1   
    31    16    38 1   
    32    16    39 1   
    33    17    18 1   
    34    17    40 1   
    35    17    41 1   
    36    18    42 1   
    37    18    43 1   
    38    19    20 1   
    39    19    25 1   
    40    19    44 1   
    41    19    45 1   
    42    20    21 ar  
    43    20    24 ar  
    44    21    26 2   
    45    21    46 1   
    46    22    23 ar  
    47    22    26 1   
    48    22    50 1   
    49    23    24 ar  
    50    23    51 1   
    51    24    52 1   
    52    25    53 1   
    53    26    54 1   
    54    47    54 1   
    55    48    54 1   
    56    49    54 1   
@<TRIPOS>SUBSTRUCTURE
     1 10P         1 TEMP              0 ****  ****    0 ROOT
