@<TRIPOS>MOLECULE
10Q
   52    56     1     0     0
SMALL
No Charge or Current Charge


@<TRIPOS>ATOM
      1 C1          -0.7860     0.2330    -0.0200 c5         1 10Q       0.310500
      2 C2          -1.6750     0.7870    -1.1530 c5         1 10Q      -0.170700
      3 N1          -0.9570     3.0170    -0.3650 n          1 10Q      -0.380300
      4 C3          -0.3950     2.3930     0.7490 c2         1 10Q       0.690800
      5 C4          -1.3840     2.2560    -1.4710 c          1 10Q       0.590000
      6 N2          -0.9540     1.2170     1.0790 nu         1 10Q      -0.898400
      7 C5           0.6410    -0.0860    -0.4270 cc         1 10Q      -0.260300
      8 N3          -3.0340    -0.6810     0.0820 nh         1 10Q      -0.783300
      9 C6          -1.6100    -1.0480     0.3870 c5         1 10Q       0.238800
     10 C7          -3.1180     0.6390    -0.5990 c5         1 10Q       0.248800
     11 C8           1.7490     0.0460     0.3770 cd         1 10Q      -0.095000
     12 C9           2.9830    -0.3400    -0.2360 cd         1 10Q      -0.061000
     13 S1           1.0880    -0.7420    -1.9940 ss         1 10Q       0.239000
     14 C10          2.7800    -0.7860    -1.5250 cc         1 10Q      -0.224000
     15 C11         -4.1160    -1.5690     0.2480 ca         1 10Q       0.672900
     16 N4           8.8530    -1.4790    -0.9400 n1         1 10Q      -0.449000
     17 N5           0.2690     2.9660     1.6550 n2         1 10Q      -0.884100
     18 C12          4.3150    -0.2830     0.4210 ca         1 10Q      -0.015000
     19 C13         -5.4420    -1.1880     0.5660 ca         1 10Q      -0.151000
     20 C14          7.9110    -1.1130    -0.3550 cg         1 10Q       0.321000
     21 O1          -1.4780     2.7340    -2.5930 o          1 10Q      -0.519000
     22 C15         -6.4190    -2.1900     0.6940 ca         1 10Q       0.007000
     23 C16          5.4780    -0.7170    -0.2600 ca         1 10Q      -0.064000
     24 C17         -0.8530     4.4880    -0.5460 c3         1 10Q       0.071300
     25 C18          6.7440    -0.6650     0.3560 ca         1 10Q      -0.016000
     26 N6          -3.7510    -2.8540     0.0840 nb         1 10Q      -0.767000
     27 C19          4.4610     0.2070     1.7400 ca         1 10Q      -0.079000
     28 C20         -4.6950    -3.8100     0.2080 ca         1 10Q       0.417900
     29 C21          5.7230     0.2600     2.3560 ca         1 10Q      -0.112000
     30 C22         -6.0320    -3.5230     0.5060 ca         1 10Q      -0.233000
     31 C23          6.8640    -0.1760     1.6680 ca         1 10Q      -0.069000
     32 C24         -5.8190     0.1710     0.8030 cg         1 10Q       0.335000
     33 N7          -6.1450     1.2760     0.9950 n1         1 10Q      -0.464000
     34 H1          -1.6000     0.2080    -2.0780 hc         1 10Q       0.099700
     35 H2          -1.2880    -1.9060    -0.2200 h1         1 10Q       0.073200
     36 H3          -1.4590    -1.3110     1.4430 h1         1 10Q       0.073200
     37 H4          -3.3730     1.4410     0.1090 h1         1 10Q       0.072200
     38 H5          -3.8590     0.6500    -1.4110 h1         1 10Q       0.072200
     39 H6           1.6770     0.4150     1.3940 ha         1 10Q       0.145000
     40 H7           3.4930    -1.1470    -2.2530 h4         1 10Q       0.158000
     41 H8           0.4890     3.9140     1.3300 hn         1 10Q       0.407400
     42 H10         -7.4510    -1.9440     0.9410 ha         1 10Q       0.128000
     43 H11          5.4120    -1.1000    -1.2730 ha         1 10Q       0.127000
     44 H12          0.1230     4.7420    -0.9780 h1         1 10Q       0.056033
     45 H13         -1.6450     4.8490    -1.2150 h1         1 10Q       0.056033
     46 H14         -0.9700     5.0020     0.4170 h1         1 10Q       0.056033
     47 H15          3.6040     0.5560     2.3060 ha         1 10Q       0.120000
     48 H16         -4.3660    -4.8390     0.0650 h4         1 10Q       0.021100
     49 H17          5.8140     0.6400     3.3710 ha         1 10Q       0.123000
     50 H18         -6.7530    -4.3300     0.5970 ha         1 10Q       0.133000
     51 H19          7.8380    -0.1310     2.1530 ha         1 10Q       0.128000
     52 H20         -0.6740     0.9480     2.0140 hn         1 10Q       0.507000
@<TRIPOS>BOND
     1     1     2 1   
     2     1     6 1   
     3     1     7 1   
     4     1     9 1   
     5     2     5 1   
     6     2    10 1   
     7     2    34 1   
     8     3     4 1   
     9     3     5 1   
    10     3    24 1   
    11     4     6 1   
    12     4    17 2   
    13     5    21 2   
    14     6    52 1   
    15     7    11 2   
    16     7    13 1   
    17     8     9 1   
    18     8    10 1   
    19     8    15 1   
    20     9    35 1   
    21     9    36 1   
    22    10    37 1   
    23    10    38 1   
    24    11    12 1   
    25    11    39 1   
    26    12    14 2   
    27    12    18 1   
    28    13    14 1   
    29    14    40 1   
    30    15    19 ar  
    31    15    26 ar  
    32    16    20 3   
    33    17    41 1   
    34    18    23 ar  
    35    18    27 ar  
    36    19    22 ar  
    37    19    32 1   
    38    20    25 1   
    39    22    30 ar  
    40    22    42 1   
    41    23    25 ar  
    42    23    43 1   
    43    24    44 1   
    44    24    45 1   
    45    24    46 1   
    46    25    31 ar  
    47    26    28 ar  
    48    27    29 ar  
    49    27    47 1   
    50    28    30 ar  
    51    28    48 1   
    52    29    31 ar  
    53    29    49 1   
    54    30    50 1   
    55    31    51 1   
    56    32    33 3   
@<TRIPOS>SUBSTRUCTURE
     1 10Q         1 TEMP              0 ****  ****    0 ROOT
