@<TRIPOS>MOLECULE
10Q
   52    56     1     0     0
SMALL
abcg2


@<TRIPOS>ATOM
      1 C1          -0.8240     0.0050     0.0540 c5         1 10Q       0.310500
      2 C2          -1.5680     0.7120    -1.0740 c5         1 10Q      -0.170700
      3 N1          -0.6250     2.7790    -0.1650 n          1 10Q      -0.380300
      4 C3          -0.5790     2.2070     1.1180 c2         1 10Q       0.690800
      5 C4          -1.1510     2.1440    -1.2610 c          1 10Q       0.590000
      6 N2          -0.9080     0.8830     1.1890 nu         1 10Q      -0.898400
      7 C5           0.5970    -0.3620    -0.2780 cc         1 10Q      -0.260300
      8 N3          -3.0550    -0.6940     0.0550 nh         1 10Q      -0.783300
      9 C6          -1.7190    -1.2080     0.3040 c5         1 10Q       0.238800
     10 C7          -3.0400     0.5620    -0.6760 c5         1 10Q       0.248800
     11 C8           1.7260    -0.0220     0.4010 cd         1 10Q      -0.095000
     12 C9           2.9220    -0.5140    -0.2060 cd         1 10Q      -0.061000
     13 S1           0.9840    -1.3010    -1.6740 ss         1 10Q       0.239000
     14 C10          2.6570    -1.2250    -1.3410 cc         1 10Q      -0.224000
     15 C11         -4.1370    -1.4650     0.2820 ca         1 10Q       0.672900
     16 N4           8.6770     0.0480    -1.5820 n1         1 10Q      -0.449000
     17 N5          -0.2830     2.8330     2.1840 n2         1 10Q      -0.884100
     18 C12          4.2690    -0.2830     0.3320 ca         1 10Q      -0.015000
     19 C13         -5.4810    -1.0260     0.1370 ca         1 10Q      -0.151000
     20 C14          7.7680     0.0160    -0.8740 cg         1 10Q       0.321000
     21 O1          -1.2840     2.6990    -2.3310 o          1 10Q      -0.519000
     22 C15         -6.5080    -1.9480     0.3440 ca         1 10Q       0.007000
     23 C16          5.3730    -0.2330    -0.5150 ca         1 10Q      -0.064000
     24 C17         -0.1830     4.1590    -0.2950 c3         1 10Q       0.071300
     25 C18          6.6470    -0.0310     0.0090 ca         1 10Q      -0.016000
     26 N6          -3.8810    -2.7140     0.6800 nb         1 10Q      -0.767000
     27 C19          4.4740    -0.1140     1.7030 ca         1 10Q      -0.079000
     28 C20         -4.8730    -3.5580     0.8900 ca         1 10Q       0.417900
     29 C21          5.7440     0.0940     2.2190 ca         1 10Q      -0.112000
     30 C22         -6.2130    -3.2430     0.7150 ca         1 10Q      -0.233000
     31 C23          6.8440     0.1360     1.3790 ca         1 10Q      -0.069000
     32 C24         -5.8660     0.3150    -0.1300 cg         1 10Q       0.335000
     33 N7          -6.2460     1.3890    -0.3160 n1         1 10Q      -0.464000
     34 H1          -1.3990     0.1990    -2.0230 hc         1 10Q       0.099700
     35 H2          -1.4660    -2.0230    -0.3800 h1         1 10Q       0.073200
     36 H3          -1.6060    -1.5880     1.3210 h1         1 10Q       0.073200
     37 H4          -3.3760     1.3970    -0.0580 h1         1 10Q       0.072200
     38 H5          -3.6710     0.5200    -1.5650 h1         1 10Q       0.072200
     39 H6           1.7200     0.5820     1.2980 ha         1 10Q       0.145000
     40 H7           3.3560    -1.7330    -1.9880 h4         1 10Q       0.158000
     41 H8          -0.1450     3.8250     2.0470 hn         1 10Q       0.407400
     42 H10         -7.5340    -1.6270     0.2250 ha         1 10Q       0.128000
     43 H11          5.2470    -0.3350    -1.5850 ha         1 10Q       0.127000
     44 H12          0.7970     4.2820     0.1620 h1         1 10Q       0.056033
     45 H13         -0.1030     4.4120    -1.3450 h1         1 10Q       0.056033
     46 H14         -0.8880     4.8460     0.1730 h1         1 10Q       0.056033
     47 H15          3.6340    -0.1610     2.3840 ha         1 10Q       0.120000
     48 H16         -4.5870    -4.5520     1.2160 h4         1 10Q       0.021100
     49 H17          5.8770     0.2160     3.2850 ha         1 10Q       0.123000
     50 H18         -6.9880    -3.9750     0.8850 ha         1 10Q       0.133000
     51 H19          7.8370     0.2960     1.7740 ha         1 10Q       0.128000
     52 H20         -0.7560     0.4790     2.1020 hn         1 10Q       0.507000
@<TRIPOS>BOND
     1     1     2 1   
     2     1     6 1   
     3     1     7 1   
     4     1     9 1   
     5     2     5 1   
     6     2    10 1   
     7     2    34 1   
     8     3     4 1   
     9     3     5 1   
    10     3    24 1   
    11     4     6 1   
    12     4    17 2   
    13     5    21 2   
    14     6    52 1   
    15     7    11 2   
    16     7    13 1   
    17     8     9 1   
    18     8    10 1   
    19     8    15 1   
    20     9    35 1   
    21     9    36 1   
    22    10    37 1   
    23    10    38 1   
    24    11    12 1   
    25    11    39 1   
    26    12    14 2   
    27    12    18 1   
    28    13    14 1   
    29    14    40 1   
    30    15    19 ar  
    31    15    26 ar  
    32    16    20 3   
    33    17    41 1   
    34    18    23 ar  
    35    18    27 ar  
    36    19    22 ar  
    37    19    32 1   
    38    20    25 1   
    39    22    30 ar  
    40    22    42 1   
    41    23    25 ar  
    42    23    43 1   
    43    24    44 1   
    44    24    45 1   
    45    24    46 1   
    46    25    31 ar  
    47    26    28 ar  
    48    27    29 ar  
    49    27    47 1   
    50    28    30 ar  
    51    28    48 1   
    52    29    31 ar  
    53    29    49 1   
    54    30    50 1   
    55    31    51 1   
    56    32    33 3   
@<TRIPOS>SUBSTRUCTURE
     1 10Q         1 TEMP              0 ****  ****    0 ROOT
