@<TRIPOS>MOLECULE
10T
   46    47     1     0     0
SMALL
bcc


@<TRIPOS>ATOM
      1 C4           3.3750     0.8090    -0.7510 c3         1 10T      -0.120700
      2 C5           2.1310     0.0060    -0.4850 ca         1 10T       0.407600
      3 C7           1.2660    -2.0890    -0.0670 ca         1 10T       0.428600
      4 C8           1.5440    -3.5560     0.0860 c3         1 10T      -0.135400
      5 C17          0.8780     0.6120    -0.3500 ca         1 10T      -0.201600
      6 C20         -1.5860     0.3400     0.0580 cp         1 10T      -0.001000
      7 C21         -2.1750     0.4580     1.3140 ca         1 10T      -0.098000
      8 C22         -3.4500     0.9870     1.4500 ca         1 10T      -0.136000
      9 C26         -2.3160     0.7420    -1.0560 ca         1 10T      -0.098000
     10 O14         -1.2840    -2.8930     1.5730 o          1 10T      -0.814300
     11 O15         -1.9290    -2.7960    -0.5640 o          1 10T      -0.814300
     12 C12         -0.0250    -1.5850     0.0840 ca         1 10T      -0.206900
     13 C16         -0.2170    -0.2160    -0.0800 cp         1 10T      -0.010000
     14 C23         -4.1800     1.4060     0.3390 ca         1 10T      -0.095300
     15 C25         -3.5930     1.2670    -0.9160 ca         1 10T      -0.136000
     16 C18          0.7170     2.1030    -0.5130 c3         1 10T       0.202100
     17 N19          0.7150     2.4760    -1.9240 n8         1 10T      -0.884800
     18 C2           4.0460     1.3630     0.5170 c3         1 10T      -0.056700
     19 C1           4.5070     0.2540     1.4570 c3         1 10T      -0.083600
     20 C3           5.2140     2.2620     0.1300 c3         1 10T      -0.083600
     21 N6           2.3000    -1.3080    -0.3570 nb         1 10T      -0.709000
     22 H4           4.0930     0.1680    -1.2690 hc         1 10T       0.052200
     23 H4A          3.1420     1.6360    -1.4260 hc         1 10T       0.052200
     24 H8           1.3570    -3.8870     1.1080 hc         1 10T       0.045367
     25 H8A          0.9000    -4.1540    -0.5620 hc         1 10T       0.045367
     26 H8B          2.5800    -3.7750    -0.1640 hc         1 10T       0.045367
     27 H21         -1.6310     0.1390     2.1940 ha         1 10T       0.138000
     28 H22         -3.8840     1.0760     2.4390 ha         1 10T       0.113500
     29 H24         -5.4790     3.0580     0.7890 hc         1 10T       0.028700
     30 H24A        -6.1140     1.9650    -0.4320 hc         1 10T       0.028700
     31 H24B        -6.1220     1.4970     1.2690 hc         1 10T       0.028700
     32 H26         -1.8940     0.6260    -2.0470 ha         1 10T       0.138000
     33 H25         -4.1420     1.5670    -1.8010 ha         1 10T       0.113500
     34 H18         -0.1770     2.4330     0.0260 h1         1 10T       0.028700
     35 H18A         1.5570     2.6140    -0.0400 h1         1 10T       0.028700
     36 HN19        -0.1190     2.1110    -2.3680 hn         1 10T       0.328800
     37 HN1A         0.6450     3.4830    -1.9980 hn         1 10T       0.328800
     38 H2           3.3120     1.9740     1.0550 hc         1 10T       0.039700
     39 H1           5.2160    -0.4110     0.9580 hc         1 10T       0.027533
     40 H1A          5.0060     0.6740     2.3330 hc         1 10T       0.027533
     41 H1B          3.6760    -0.3560     1.8090 hc         1 10T       0.027533
     42 H3           4.8900     3.0860    -0.5090 hc         1 10T       0.027533
     43 H3A          5.6920     2.6930     1.0110 hc         1 10T       0.027533
     44 H3B          5.9740     1.6990    -0.4170 hc         1 10T       0.027533
     45 C13         -1.1910    -2.5080     0.3930 c          1 10T       0.929200
     46 C24         -5.5460     2.0070     0.4970 c3         1 10T      -0.035800
@<TRIPOS>BOND
     1     1     2 1   
     2     1    18 1   
     3     1    22 1   
     4     1    23 1   
     5     2     5 ar  
     6     2    21 ar  
     7     3     4 1   
     8     3    12 ar  
     9     3    21 ar  
    10     4    24 1   
    11     4    25 1   
    12     4    26 1   
    13     5    13 ar  
    14     5    16 1   
    15     6     7 ar  
    16     6     9 ar  
    17     6    13 1   
    18     7     8 ar  
    19     7    27 1   
    20     8    14 ar  
    21     8    28 1   
    22     9    15 ar  
    23     9    32 1   
    24    10    45 1   
    25    11    45 1   
    26    12    13 ar  
    27    12    45 1   
    28    14    15 ar  
    29    14    46 1   
    30    15    33 1   
    31    16    17 1   
    32    16    34 1   
    33    16    35 1   
    34    17    36 1   
    35    17    37 1   
    36    18    19 1   
    37    18    20 1   
    38    18    38 1   
    39    19    39 1   
    40    19    40 1   
    41    19    41 1   
    42    20    42 1   
    43    20    43 1   
    44    20    44 1   
    45    29    46 1   
    46    30    46 1   
    47    31    46 1   
@<TRIPOS>SUBSTRUCTURE
     1 10T         1 TEMP              0 ****  ****    0 ROOT
