@<TRIPOS>MOLECULE
10T
   46    47     1     0     0
SMALL
No Charge or Current Charge


@<TRIPOS>ATOM
      1 C4           3.4900     0.7640    -0.6960 c3         1 10T      -0.120700
      2 C5           2.1910    -0.0200    -0.4720 ca         1 10T       0.342300
      3 C7           1.2790    -2.1520    -0.2560 ca         1 10T       0.363300
      4 C8           1.5510    -3.6480    -0.2160 c3         1 10T      -0.135400
      5 C17          0.9210     0.6040    -0.3200 ca         1 10T      -0.136300
      6 C20         -1.5910     0.3570     0.0440 cp         1 10T      -0.001000
      7 C21         -1.9770     1.0060     1.2400 ca         1 10T      -0.080000
      8 C22         -3.2640     1.5520     1.3820 ca         1 10T      -0.118000
      9 C26         -2.5380     0.2640    -1.0030 ca         1 10T      -0.080000
     10 O14         -1.6310    -2.5830     1.2790 o          1 10T      -0.709000
     11 O15         -1.6250    -3.1350    -0.8060 o          1 10T      -0.709000
     12 C12         -0.0040    -1.6210    -0.0890 ca         1 10T      -0.141600
     13 C16         -0.2220    -0.2210    -0.1120 cp         1 10T      -0.010000
     14 C23         -4.1950     1.4560     0.3320 ca         1 10T      -0.095300
     15 C25         -3.8260     0.8090    -0.8620 ca         1 10T      -0.118000
     16 C18          0.7740     2.1240    -0.4070 c3         1 10T       0.202100
     17 N19          0.3170     2.5420    -1.7420 n8         1 10T      -0.995200
     18 C2           4.1270     1.3290     0.6060 c3         1 10T      -0.056700
     19 C1           4.5760     0.2140     1.5800 c3         1 10T      -0.083600
     20 C3           5.2990     2.2840     0.2830 c3         1 10T      -0.083600
     21 N6           2.3570    -1.3640    -0.4460 nb         1 10T      -0.709000
     22 H4           4.2310     0.1300    -1.2000 hc         1 10T       0.052200
     23 H4A          3.3040     1.5850    -1.3970 hc         1 10T       0.052200
     24 H8           1.1290    -4.0990     0.6900 hc         1 10T       0.045367
     25 H8A          1.1040    -4.1480    -1.0830 hc         1 10T       0.045367
     26 H8B          2.6250    -3.8710    -0.2230 hc         1 10T       0.045367
     27 H21         -1.2670     1.0830     2.0600 ha         1 10T       0.120000
     28 H22         -3.5360     2.0490     2.3100 ha         1 10T       0.095500
     29 H24         -5.6070     3.0910     0.1430 hc         1 10T       0.028700
     30 H24A        -6.3270     1.4900    -0.1030 hc         1 10T       0.028700
     31 H24B        -5.9180     2.0320     1.5300 hc         1 10T       0.028700
     32 H26         -2.2650    -0.2340    -1.9300 ha         1 10T       0.120000
     33 H25         -4.5350     0.7280    -1.6820 ha         1 10T       0.095500
     34 H18          0.0470     2.4760     0.3360 h1         1 10T       0.028700
     35 H18A         1.7190     2.6360    -0.1900 h1         1 10T       0.028700
     36 HN19        -0.6120     2.1370    -1.9040 hn         1 10T       0.384000
     37 HN1A         0.1460     3.5540    -1.7320 hn         1 10T       0.384000
     38 H2           3.3680     1.9220     1.1290 hc         1 10T       0.039700
     39 H1           5.3110    -0.4470     1.1060 hc         1 10T       0.027533
     40 H1A          5.0320     0.6460     2.4790 hc         1 10T       0.027533
     41 H1B          3.7220    -0.3930     1.9020 hc         1 10T       0.027533
     42 H3           4.9620     3.1100    -0.3550 hc         1 10T       0.027533
     43 H3A          5.7120     2.7160     1.2020 hc         1 10T       0.027533
     44 H3B          6.1040     1.7520    -0.2390 hc         1 10T       0.027533
     45 C13         -1.1920    -2.4970     0.1420 c          1 10T       0.718600
     46 C24         -5.5880     2.0490     0.4840 c3         1 10T      -0.035800
@<TRIPOS>BOND
     1     1     2 1   
     2     1    18 1   
     3     1    22 1   
     4     1    23 1   
     5     2     5 ar  
     6     2    21 ar  
     7     3     4 1   
     8     3    12 ar  
     9     3    21 ar  
    10     4    24 1   
    11     4    25 1   
    12     4    26 1   
    13     5    13 ar  
    14     5    16 1   
    15     6     7 ar  
    16     6     9 ar  
    17     6    13 1   
    18     7     8 ar  
    19     7    27 1   
    20     8    14 ar  
    21     8    28 1   
    22     9    15 ar  
    23     9    32 1   
    24    10    45 1   
    25    11    45 1   
    26    12    13 ar  
    27    12    45 1   
    28    14    15 ar  
    29    14    46 1   
    30    15    33 1   
    31    16    17 1   
    32    16    34 1   
    33    16    35 1   
    34    17    36 1   
    35    17    37 1   
    36    18    19 1   
    37    18    20 1   
    38    18    38 1   
    39    19    39 1   
    40    19    40 1   
    41    19    41 1   
    42    20    42 1   
    43    20    43 1   
    44    20    44 1   
    45    29    46 1   
    46    30    46 1   
    47    31    46 1   
@<TRIPOS>SUBSTRUCTURE
     1 10T         1 TEMP              0 ****  ****    0 ROOT
