@<TRIPOS>MOLECULE
10U
   56    58     1     0     0
SMALL
bcc


@<TRIPOS>ATOM
      1 C14          2.6240     0.4550     1.0060 c          1 10U       0.676100
      2 O32          2.4210    -0.6560     1.4780 o          1 10U      -0.596100
      3 C15          3.9450     0.8370     0.3670 c3         1 10U       0.089800
      4 N16          4.8190    -0.3020     0.2530 n7         1 10U      -0.788200
      5 C17          6.1360     0.0360    -0.2710 c5         1 10U       0.165500
      6 C21          6.0910     0.1750    -1.8000 c5         1 10U      -0.075900
      7 C20          6.3460    -1.2420    -2.3660 c5         1 10U      -0.070900
      8 C19          6.6470    -2.1360    -1.1520 c5         1 10U      -0.070900
      9 C18          7.0760    -1.1490    -0.0690 c5         1 10U      -0.075900
     10 N1           1.6830     1.4130     1.0430 n          1 10U      -0.473800
     11 C2           0.3910     1.1430     1.6390 c5         1 10U       0.032700
     12 C7          -0.3140    -0.0170     0.9520 c          1 10U       0.672100
     13 O22         -0.2390    -0.2020    -0.2510 o          1 10U      -0.580100
     14 C3          -0.3860     2.4510     1.4240 c5         1 10U      -0.087400
     15 C4           0.7120     3.5060     1.3430 c5         1 10U      -0.094400
     16 C5           1.8190     2.7890     0.5820 c5         1 10U       0.108000
     17 N23         -1.0840    -0.7580     1.7630 ns         1 10U      -0.570900
     18 C24         -1.9440    -1.8040     1.2610 c3         1 10U       0.154300
     19 C25         -3.1330    -1.2720     0.5010 ca         1 10U      -0.090300
     20 C30         -4.0170    -0.3790     1.1040 ca         1 10U      -0.120500
     21 C29         -5.1200     0.0980     0.4190 ca         1 10U      -0.099000
     22 C28         -5.3780    -0.3160    -0.8870 ca         1 10U      -0.142900
     23 C31         -6.5720     0.2130    -1.6020 ce         1 10U       0.661800
     24 N49         -7.0110     1.3710    -1.2870 n2         1 10U      -0.829100
     25 N48         -7.0660    -0.5970    -2.5850 nv         1 10U      -0.966800
     26 C27         -4.4930    -1.2030    -1.4940 ca         1 10U      -0.099000
     27 C26         -3.3790    -1.6660    -0.8070 ca         1 10U      -0.120500
     28 H15          3.7470     1.2540    -0.6250 h1         1 10U       0.043200
     29 H15A         4.3840     1.6640     0.9520 h1         1 10U       0.043200
     30 HN16         4.9260    -0.7210     1.1690 hn         1 10U       0.370800
     31 H17          6.5340     0.9470     0.2030 h1         1 10U       0.021700
     32 H21          5.1420     0.5900    -2.1410 hc         1 10U       0.041700
     33 H21A         6.8670     0.8690    -2.1290 hc         1 10U       0.041700
     34 H20          5.4980    -1.6130    -2.9420 hc         1 10U       0.043700
     35 H20A         7.2000    -1.2260    -3.0450 hc         1 10U       0.043700
     36 H19          5.7490    -2.6670    -0.8320 hc         1 10U       0.043700
     37 H19A         7.4080    -2.8890    -1.3610 hc         1 10U       0.043700
     38 H18          8.1040    -0.8190    -0.2440 hc         1 10U       0.041700
     39 H18A         7.0350    -1.5580     0.9440 hc         1 10U       0.041700
     40 H2           0.5010     0.9370     2.7100 h1         1 10U       0.060700
     41 H3          -1.1030     2.6280     2.2240 hc         1 10U       0.064700
     42 H3A         -0.9380     2.4160     0.4820 hc         1 10U       0.064700
     43 H4           1.0600     3.7730     2.3430 hc         1 10U       0.055200
     44 H4A          0.3890     4.4180     0.8430 hc         1 10U       0.055200
     45 H5           2.8040     3.1940     0.8140 h1         1 10U       0.050200
     46 H5A          1.6680     2.8580    -0.4990 h1         1 10U       0.050200
     47 HN23        -1.0840    -0.5690     2.7510 hn         1 10U       0.314500
     48 H24         -1.3740    -2.4870     0.6280 h1         1 10U       0.059200
     49 H24A        -2.2830    -2.3780     2.1240 h1         1 10U       0.059200
     50 H30         -3.8410    -0.0490     2.1210 ha         1 10U       0.133500
     51 H29         -5.7990     0.7880     0.9010 ha         1 10U       0.144000
     52 HN49        -7.8440     1.6060    -1.8220 hn         1 10U       0.369400
     53 HN48        -6.9240    -1.5900    -2.5030 hn         1 10U       0.405800
     54 HN4A        -7.9550    -0.3480    -2.9890 hn         1 10U       0.405800
     55 H27         -4.6470    -1.5230    -2.5160 ha         1 10U       0.144000
     56 H26         -2.6900    -2.3390    -1.3030 ha         1 10U       0.133500
@<TRIPOS>BOND
     1     1     2 2   
     2     1     3 1   
     3     1    10 1   
     4     3     4 1   
     5     3    28 1   
     6     3    29 1   
     7     4     5 1   
     8     4    30 1   
     9     5     6 1   
    10     5     9 1   
    11     5    31 1   
    12     6     7 1   
    13     6    32 1   
    14     6    33 1   
    15     7     8 1   
    16     7    34 1   
    17     7    35 1   
    18     8     9 1   
    19     8    36 1   
    20     8    37 1   
    21     9    38 1   
    22     9    39 1   
    23    10    11 1   
    24    10    16 1   
    25    11    12 1   
    26    11    14 1   
    27    11    40 1   
    28    12    13 2   
    29    12    17 1   
    30    14    15 1   
    31    14    41 1   
    32    14    42 1   
    33    15    16 1   
    34    15    43 1   
    35    15    44 1   
    36    16    45 1   
    37    16    46 1   
    38    17    18 1   
    39    17    47 1   
    40    18    19 1   
    41    18    48 1   
    42    18    49 1   
    43    19    20 ar  
    44    19    27 ar  
    45    20    21 ar  
    46    20    50 1   
    47    21    22 ar  
    48    21    51 1   
    49    22    23 1   
    50    22    26 ar  
    51    23    24 2   
    52    23    25 1   
    53    24    52 1   
    54    25    53 1   
    55    25    54 1   
    56    26    27 ar  
    57    26    55 1   
    58    27    56 1   
@<TRIPOS>SUBSTRUCTURE
     1 10U         1 TEMP              0 ****  ****    0 ROOT
