@<TRIPOS>MOLECULE
10U
   56    58     1     0     0
SMALL
No Charge or Current Charge


@<TRIPOS>ATOM
      1 C14          2.7120     0.2640     1.0110 c          1 10U       0.609100
      2 O32          2.5030    -0.7270     1.7070 o          1 10U      -0.596100
      3 C15          4.0890     0.4980     0.2970 c3         1 10U       0.089800
      4 N16          4.9890    -0.7020     0.2160 n7         1 10U      -0.843400
      5 C17          6.3500    -0.4610    -0.3150 c5         1 10U       0.165500
      6 C21          6.2810    -0.1900    -1.8400 c5         1 10U      -0.075900
      7 C20          7.7490    -0.4590    -2.2900 c5         1 10U      -0.070900
      8 C19          8.3340    -1.4340    -1.2140 c5         1 10U      -0.070900
      9 C18          7.1170    -1.8030    -0.3220 c5         1 10U      -0.075900
     10 N1           1.7040     1.2380     0.8350 n          1 10U      -0.406800
     11 C2           0.3240     1.0840     1.3810 c5         1 10U       0.032700
     12 C7          -0.4450    -0.1990     0.9250 c          1 10U       0.605100
     13 O22         -0.2110    -0.9040    -0.0490 o          1 10U      -0.580100
     14 C3          -0.3860     2.3250     0.7580 c5         1 10U      -0.087400
     15 C4           0.7480     3.3780     0.7540 c5         1 10U      -0.094400
     16 C5           1.9430     2.5570     0.2110 c5         1 10U       0.108000
     17 N23         -1.4780    -0.4450     1.8060 ns         1 10U      -0.503900
     18 C24         -2.4470    -1.5300     1.6630 c3         1 10U       0.154300
     19 C25         -3.6850    -1.0660     0.9090 ca         1 10U      -0.090300
     20 C30         -4.7760    -0.5150     1.6030 ca         1 10U      -0.102500
     21 C29         -5.9160    -0.0780     0.9070 ca         1 10U      -0.081000
     22 C28         -5.9970    -0.1960    -0.5000 ca         1 10U      -0.142900
     23 C31         -7.2070     0.3030    -1.2350 ce         1 10U       0.661800
     24 N49         -8.0580     1.0940    -0.7230 n2         1 10U      -0.829100
     25 N48         -7.4600    -0.1970    -2.4640 nv         1 10U      -1.077200
     26 C27         -4.8820    -0.7310    -1.1920 ca         1 10U      -0.081000
     27 C26         -3.7430    -1.1660    -0.4920 ca         1 10U      -0.102500
     28 H15          3.8740     0.8690    -0.7140 h1         1 10U       0.043200
     29 H15A         4.5890     1.3110     0.8410 h1         1 10U       0.043200
     30 HN16         5.0660    -1.0980     1.1630 hn         1 10U       0.426000
     31 H17          6.8860     0.3250     0.2370 h1         1 10U       0.021700
     32 H21          5.5860    -0.8730    -2.3440 hc         1 10U       0.041700
     33 H21A         5.9590     0.8310    -2.0720 hc         1 10U       0.041700
     34 H20          7.7830    -0.8910    -3.2960 hc         1 10U       0.043700
     35 H20A         8.3300     0.4710    -2.3240 hc         1 10U       0.043700
     36 H19          8.7950    -2.3210    -1.6640 hc         1 10U       0.043700
     37 H19A         9.1120    -0.9360    -0.6240 hc         1 10U       0.043700
     38 H18          7.4190    -2.1220     0.6820 hc         1 10U       0.041700
     39 H18A         6.5280    -2.6160    -0.7660 hc         1 10U       0.041700
     40 H2           0.3420     1.1350     2.4780 h1         1 10U       0.060700
     41 H3          -1.2600     2.6440     1.3370 hc         1 10U       0.064700
     42 H3A         -0.7290     2.1220    -0.2640 hc         1 10U       0.064700
     43 H4           0.9500     3.7450     1.7670 hc         1 10U       0.055200
     44 H4A          0.5200     4.2490     0.1280 hc         1 10U       0.055200
     45 H5           2.9040     2.9990     0.5060 h1         1 10U       0.050200
     46 H5A          1.9140     2.4770    -0.8840 h1         1 10U       0.050200
     47 HN23        -1.5910     0.2020     2.5780 hn         1 10U       0.314500
     48 H24         -1.9830    -2.3760     1.1380 h1         1 10U       0.059200
     49 H24A        -2.7330    -1.8800     2.6630 h1         1 10U       0.059200
     50 H30         -4.7410    -0.4190     2.6870 ha         1 10U       0.115500
     51 H29         -6.7440     0.3470     1.4690 ha         1 10U       0.126000
     52 HN49        -8.6640     1.4360    -1.4770 hn         1 10U       0.369400
     53 HN48        -6.9400    -1.0360    -2.6950 hn         1 10U       0.461000
     54 HN4A        -8.4310    -0.2030    -2.7540 hn         1 10U       0.461000
     55 H27         -4.8830    -0.8020    -2.2770 ha         1 10U       0.126000
     56 H26         -2.8990    -1.5730    -1.0440 ha         1 10U       0.115500
@<TRIPOS>BOND
     1     1     2 2   
     2     1     3 1   
     3     1    10 1   
     4     3     4 1   
     5     3    28 1   
     6     3    29 1   
     7     4     5 1   
     8     4    30 1   
     9     5     6 1   
    10     5     9 1   
    11     5    31 1   
    12     6     7 1   
    13     6    32 1   
    14     6    33 1   
    15     7     8 1   
    16     7    34 1   
    17     7    35 1   
    18     8     9 1   
    19     8    36 1   
    20     8    37 1   
    21     9    38 1   
    22     9    39 1   
    23    10    11 1   
    24    10    16 1   
    25    11    12 1   
    26    11    14 1   
    27    11    40 1   
    28    12    13 2   
    29    12    17 1   
    30    14    15 1   
    31    14    41 1   
    32    14    42 1   
    33    15    16 1   
    34    15    43 1   
    35    15    44 1   
    36    16    45 1   
    37    16    46 1   
    38    17    18 1   
    39    17    47 1   
    40    18    19 1   
    41    18    48 1   
    42    18    49 1   
    43    19    20 ar  
    44    19    27 ar  
    45    20    21 ar  
    46    20    50 1   
    47    21    22 ar  
    48    21    51 1   
    49    22    23 1   
    50    22    26 ar  
    51    23    24 2   
    52    23    25 1   
    53    24    52 1   
    54    25    53 1   
    55    25    54 1   
    56    26    27 ar  
    57    26    55 1   
    58    27    56 1   
@<TRIPOS>SUBSTRUCTURE
     1 10U         1 TEMP              0 ****  ****    0 ROOT
