@<TRIPOS>MOLECULE
10V
   55    59     1     0     0
SMALL
No Charge or Current Charge


@<TRIPOS>ATOM
      1 C1          -5.3510     1.3460     2.5060 ca         1 10V      -0.113000
      2 C2          -6.5970     1.4180     1.8690 ca         1 10V      -0.071000
      3 C3          -6.7050     1.0780     0.5100 ca         1 10V      -0.018000
      4 C4          -5.5620     0.6660    -0.2050 ca         1 10V      -0.064000
      5 C5          -4.2940     0.5870     0.4230 ca         1 10V      -0.013000
      6 C6          -4.2130     0.9350     1.7920 ca         1 10V      -0.079000
      7 C7          -3.0780     0.1580    -0.3060 cc         1 10V      -0.063000
      8 C8          -1.7570     0.0430     0.2160 cc         1 10V      -0.099000
      9 C9          -0.8330    -0.3840    -0.7050 cd         1 10V      -0.255300
     10 S1          -1.5650    -0.6630    -2.2890 ss         1 10V       0.240000
     11 C10         -3.1440    -0.1870    -1.6410 cd         1 10V      -0.227000
     12 C11          0.6110    -0.5270    -0.2540 c5         1 10V       0.313500
     13 C12          1.5820    -0.9360    -1.3730 c5         1 10V      -0.177700
     14 C13          1.4960    -2.4210    -1.7380 c          1 10V       0.590000
     15 N1           1.0770    -3.2590    -0.6860 n          1 10V      -0.381300
     16 C14          0.3650    -2.7340     0.3920 c2         1 10V       0.694800
     17 N2           0.7940    -1.5360     0.8150 nu         1 10V      -0.896400
     18 N3          -0.3200    -3.4010     1.2150 n2         1 10V      -0.891100
     19 C15          1.2520     0.8290     0.2310 c5         1 10V       0.229800
     20 C16          1.1570    -4.7250    -0.9050 c3         1 10V       0.071300
     21 O1           1.7250    -2.8520    -2.8610 o          1 10V      -0.527000
     22 C17         -7.9810     1.1510    -0.1500 cg         1 10V       0.323000
     23 N4          -9.0130     1.2070    -0.6940 n1         1 10V      -0.451000
     24 C18          2.9750    -0.6310    -0.7600 c5         1 10V       0.258800
     25 N5           2.7150     0.6470    -0.0460 nh         1 10V      -0.779300
     26 C19          5.9960     2.2260     0.9750 ca         1 10V      -0.139000
     27 C20          5.1220     1.2220     0.4980 ca         1 10V       0.051100
     28 C21          3.7200     1.5340     0.4150 ca         1 10V       0.597900
     29 C23          4.0690     3.6760     1.2310 ca         1 10V       0.345900
     30 C24          5.4520     3.4660     1.3420 ca         1 10V      -0.173000
     31 C25          7.0010    -0.3790     0.2160 c3         1 10V       0.147900
     32 N6           3.2160     2.7350     0.7790 nb         1 10V      -0.735000
     33 H1          -5.2650     1.6080     3.5580 ha         1 10V       0.122000
     34 H2          -7.4740     1.7380     2.4300 ha         1 10V       0.127000
     35 H3          -5.6840     0.4120    -1.2530 ha         1 10V       0.126000
     36 H4          -3.2680     0.8920     2.3230 ha         1 10V       0.121000
     37 H5          -1.5100     0.2710     1.2470 ha         1 10V       0.144000
     38 H6          -3.9920    -0.2030    -2.3110 h4         1 10V       0.157000
     39 H7           1.4570    -0.3370    -2.2810 hc         1 10V       0.096700
     40 H8          -0.4280    -4.3490     0.8360 hn         1 10V       0.403400
     41 H10          0.8500     1.6700    -0.3500 h1         1 10V       0.066700
     42 H11          1.0420     1.0190     1.2920 h1         1 10V       0.066700
     43 H12          1.2440    -5.2510     0.0540 h1         1 10V       0.054367
     44 H13          0.2580    -5.0720    -1.4300 h1         1 10V       0.054367
     45 H14          2.0420    -4.9750    -1.5060 h1         1 10V       0.054367
     46 H15          3.3040    -1.4160    -0.0630 h1         1 10V       0.065700
     47 H16          3.7350    -0.5280    -1.5480 h1         1 10V       0.065700
     48 H17          7.0670     2.0670     1.0670 ha         1 10V       0.121000
     49 H18          3.6300     4.6320     1.5150 h4         1 10V       0.019100
     50 H19          6.0900     4.2630     1.7140 ha         1 10V       0.124000
     51 H20          7.6040     0.2770    -0.4240 h1         1 10V       0.041700
     52 H21          7.3650    -0.2980     1.2490 h1         1 10V       0.041700
     53 H22          7.1530    -1.4130    -0.1170 h1         1 10V       0.041700
     54 H23          0.4020    -1.3400     1.7270 hn         1 10V       0.510000
     55 O2           5.6070    -0.0310     0.1370 os         1 10V      -0.338100
@<TRIPOS>BOND
     1     1     2 ar  
     2     1     6 ar  
     3     1    33 1   
     4     2     3 ar  
     5     2    34 1   
     6     3     4 ar  
     7     3    22 1   
     8     4     5 ar  
     9     4    35 1   
    10     5     6 ar  
    11     5     7 1   
    12     6    36 1   
    13     7     8 1   
    14     7    11 2   
    15     8     9 2   
    16     8    37 1   
    17     9    10 1   
    18     9    12 1   
    19    10    11 1   
    20    11    38 1   
    21    12    13 1   
    22    12    17 1   
    23    12    19 1   
    24    13    14 1   
    25    13    24 1   
    26    13    39 1   
    27    14    15 1   
    28    14    21 2   
    29    15    16 1   
    30    15    20 1   
    31    16    17 1   
    32    16    18 2   
    33    17    54 1   
    34    18    40 1   
    35    19    25 1   
    36    19    41 1   
    37    19    42 1   
    38    20    43 1   
    39    20    44 1   
    40    20    45 1   
    41    22    23 3   
    42    24    25 1   
    43    24    46 1   
    44    24    47 1   
    45    25    28 1   
    46    26    27 ar  
    47    26    30 ar  
    48    26    48 1   
    49    27    28 ar  
    50    27    55 1   
    51    28    32 ar  
    52    29    30 ar  
    53    29    32 ar  
    54    29    49 1   
    55    30    50 1   
    56    31    51 1   
    57    31    52 1   
    58    31    53 1   
    59    31    55 1   
@<TRIPOS>SUBSTRUCTURE
     1 10V         1 TEMP              0 ****  ****    0 ROOT
