@<TRIPOS>MOLECULE
10V
   55    59     1     0     0
SMALL
abcg2


@<TRIPOS>ATOM
      1 C1          -5.8580    -0.1280     2.1710 ca         1 10V      -0.113000
      2 C2          -6.9480    -0.1210     1.3190 ca         1 10V      -0.071000
      3 C3          -6.7350     0.1140    -0.0390 ca         1 10V      -0.018000
      4 C4          -5.4540     0.3350    -0.5380 ca         1 10V      -0.064000
      5 C5          -4.3590     0.3370     0.3220 ca         1 10V      -0.013000
      6 C6          -4.5810     0.0990     1.6800 ca         1 10V      -0.079000
      7 C7          -3.0050     0.5880    -0.1880 cc         1 10V      -0.063000
      8 C8          -1.8190     0.0530     0.4020 cc         1 10V      -0.099000
      9 C9          -0.6790     0.4260    -0.2410 cd         1 10V      -0.255300
     10 S1          -1.0450     1.4480    -1.5830 ss         1 10V       0.240000
     11 C10         -2.7220     1.3630    -1.2750 cd         1 10V      -0.227000
     12 C11          0.7360     0.0290     0.0860 c5         1 10V       0.313500
     13 C12          1.4730    -0.6620    -1.0560 c5         1 10V      -0.177700
     14 C13          1.0350    -2.0810    -1.2760 c          1 10V       0.590000
     15 N1           0.5090    -2.7380    -0.1910 n          1 10V      -0.381300
     16 C14          0.4730    -2.1950     1.1040 c2         1 10V       0.694800
     17 N2           0.7970    -0.8730     1.2020 nu         1 10V      -0.896400
     18 N3           0.1840    -2.8460     2.1580 n2         1 10V      -0.891100
     19 C15          1.6540     1.2200     0.3500 c5         1 10V       0.229800
     20 C16          0.0550    -4.1100    -0.3510 c3         1 10V       0.071300
     21 O1           1.1490    -2.6130    -2.3610 o          1 10V      -0.527000
     22 C17         -7.8460     0.1190    -0.9370 cg         1 10V       0.323000
     23 N4          -8.7450     0.1230    -1.6570 n1         1 10V      -0.451000
     24 C18          2.9500    -0.5430    -0.6520 c5         1 10V       0.258800
     25 N5           2.9800     0.6670     0.1670 nh         1 10V      -0.779300
     26 C19          6.4190     1.9540     0.3310 ca         1 10V      -0.139000
     27 C20          5.3970     1.0310     0.2490 ca         1 10V       0.051100
     28 C21          4.0580     1.5100     0.2660 ca         1 10V       0.597900
     29 C23          4.7930     3.6720     0.5530 ca         1 10V       0.345900
     30 C24          6.1170     3.3100     0.4840 ca         1 10V      -0.173000
     31 C25          6.8870    -0.8080     0.1630 c3         1 10V       0.147900
     32 N6           3.7960     2.7950     0.4370 nb         1 10V      -0.735000
     33 H1          -6.0030    -0.3040     3.2280 ha         1 10V       0.122000
     34 H2          -7.9470    -0.2970     1.6930 ha         1 10V       0.127000
     35 H3          -5.3160     0.4900    -1.6000 ha         1 10V       0.126000
     36 H4          -3.7490     0.1090     2.3730 ha         1 10V       0.121000
     37 H5          -1.8280    -0.6040     1.2600 ha         1 10V       0.144000
     38 H6          -3.4100     1.9150    -1.8990 h4         1 10V       0.157000
     39 H7           1.3080    -0.1240    -1.9910 hc         1 10V       0.096700
     40 H8           0.0460    -3.8340     1.9980 hn         1 10V       0.403400
     41 H10          1.4340     2.0260    -0.3580 h1         1 10V       0.066700
     42 H11          1.5130     1.6260     1.3530 h1         1 10V       0.066700
     43 H12          0.7540    -4.8140     0.1010 h1         1 10V       0.054367
     44 H13         -0.9260    -4.2360     0.1050 h1         1 10V       0.054367
     45 H14         -0.0290    -4.3390    -1.4060 h1         1 10V       0.054367
     46 H15          3.2800    -1.4200    -0.0920 h1         1 10V       0.065700
     47 H16          3.5740    -0.4610    -1.5410 h1         1 10V       0.065700
     48 H17          7.4540     1.6400     0.3090 ha         1 10V       0.121000
     49 H18          4.5050     4.7070     0.7010 h4         1 10V       0.019100
     50 H19          6.9040     4.0460     0.5630 ha         1 10V       0.124000
     51 H20          7.4390    -0.4620    -0.7150 h1         1 10V       0.041700
     52 H21          7.4440    -0.5310     1.0620 h1         1 10V       0.041700
     53 H22          6.8020    -1.8910     0.1210 h1         1 10V       0.041700
     54 H23          0.6630    -0.4880     2.1250 hn         1 10V       0.510000
     55 O2           5.5680    -0.3020     0.1870 os         1 10V      -0.338100
@<TRIPOS>BOND
     1     1     2 ar  
     2     1     6 ar  
     3     1    33 1   
     4     2     3 ar  
     5     2    34 1   
     6     3     4 ar  
     7     3    22 1   
     8     4     5 ar  
     9     4    35 1   
    10     5     6 ar  
    11     5     7 1   
    12     6    36 1   
    13     7     8 1   
    14     7    11 2   
    15     8     9 2   
    16     8    37 1   
    17     9    10 1   
    18     9    12 1   
    19    10    11 1   
    20    11    38 1   
    21    12    13 1   
    22    12    17 1   
    23    12    19 1   
    24    13    14 1   
    25    13    24 1   
    26    13    39 1   
    27    14    15 1   
    28    14    21 2   
    29    15    16 1   
    30    15    20 1   
    31    16    17 1   
    32    16    18 2   
    33    17    54 1   
    34    18    40 1   
    35    19    25 1   
    36    19    41 1   
    37    19    42 1   
    38    20    43 1   
    39    20    44 1   
    40    20    45 1   
    41    22    23 3   
    42    24    25 1   
    43    24    46 1   
    44    24    47 1   
    45    25    28 1   
    46    26    27 ar  
    47    26    30 ar  
    48    26    48 1   
    49    27    28 ar  
    50    27    55 1   
    51    28    32 ar  
    52    29    30 ar  
    53    29    32 ar  
    54    29    49 1   
    55    30    50 1   
    56    31    51 1   
    57    31    52 1   
    58    31    53 1   
    59    31    55 1   
@<TRIPOS>SUBSTRUCTURE
     1 10V         1 TEMP              0 ****  ****    0 ROOT
