@<TRIPOS>MOLECULE
10W
   52    56     1     0     0
SMALL
No Charge or Current Charge


@<TRIPOS>ATOM
      1 C1          -2.0150     1.9120    -1.6920 c          1 10W       0.588000
      2 N1          -2.1500     2.9440    -0.7420 n          1 10W      -0.381300
      3 C2          -1.8820     2.7020     0.6060 c2         1 10W       0.691800
      4 N2          -2.2740     1.4990     1.0520 nu         1 10W      -0.899400
      5 N3          -1.6920     3.5870     1.4860 n2         1 10W      -0.885100
      6 C3          -2.2940     4.3300    -1.2540 c3         1 10W       0.072300
      7 O1          -1.8220     2.1420    -2.8790 o          1 10W      -0.525000
      8 C4          -2.0830     0.4990    -1.1080 c5         1 10W      -0.168700
      9 C5          -1.5480     0.4190     0.3370 c5         1 10W       0.311500
     10 C6          -2.1880    -0.9480     0.8060 c5         1 10W       0.241800
     11 N4          -3.4410    -1.0740    -0.0120 nh         1 10W      -0.845400
     12 C7          -3.5630     0.0480    -0.9820 c5         1 10W       0.255800
     13 C8          -0.0340     0.4320     0.4610 cc         1 10W      -0.250300
     14 C9           0.6760     0.9870     1.5040 cd         1 10W      -0.106000
     15 C10          2.0840     0.8420     1.3800 cd         1 10W      -0.120000
     16 C11          2.4490     0.1590     0.2460 cc         1 10W      -0.152000
     17 S1           1.0530    -0.3150    -0.7150 ss         1 10W       0.223000
     18 C12          3.8520    -0.0850    -0.0980 ca         1 10W      -0.028000
     19 C13          4.8280    -0.2730     0.9050 ca         1 10W      -0.032000
     20 C14          6.1740    -0.5140     0.5630 ca         1 10W      -0.058000
     21 C15          6.5460    -0.5710    -0.7930 ca         1 10W       0.216000
     22 C16          5.5830    -0.3920    -1.7970 ca         1 10W      -0.153000
     23 C17          4.2410    -0.1530    -1.4520 ca         1 10W      -0.058000
     24 C18          7.1510    -0.7040     1.5970 cg         1 10W       0.323000
     25 N5           7.9370    -0.8560     2.4470 n1         1 10W      -0.430000
     26 F1           7.8320    -0.8010    -1.1490 f          1 10W      -0.156000
     27 C19         -4.4640    -2.0180     0.2480 ca         1 10W       0.350000
     28 C20         -4.2080    -3.1450     1.0570 ca         1 10W      -0.192500
     29 C21         -5.2180    -4.0880     1.3190 ca         1 10W      -0.063000
     30 C22         -6.4980    -3.9130     0.7720 ca         1 10W      -0.164000
     31 C23         -6.7680    -2.7980    -0.0350 ca         1 10W      -0.063000
     32 C24         -5.7560    -1.8580    -0.2950 ca         1 10W      -0.192500
     33 H1          -1.5700     4.4860     1.0050 hn         1 10W       0.405400
     34 H3          -2.8270     4.9540    -0.5250 h1         1 10W       0.055033
     35 H4          -1.3030     4.7610    -1.4460 h1         1 10W       0.055033
     36 H5          -2.8740     4.3370    -2.1860 h1         1 10W       0.055033
     37 H6          -1.5750    -0.1860    -1.7920 hc         1 10W       0.098700
     38 H7          -1.5060    -1.7820     0.5900 h1         1 10W       0.057700
     39 H8          -2.3880    -0.9500     1.8870 h1         1 10W       0.057700
     40 H9          -4.2140     0.8450    -0.5930 h1         1 10W       0.057700
     41 H10         -3.9600    -0.2770    -1.9540 h1         1 10W       0.057700
     42 H11          0.2130     1.4940     2.3460 ha         1 10W       0.147000
     43 H12          2.7840     1.2440     2.1060 ha         1 10W       0.141000
     44 H13          4.5420    -0.2460     1.9540 ha         1 10W       0.134000
     45 H14          5.8780    -0.4380    -2.8420 ha         1 10W       0.143000
     46 H15          3.5070    -0.0100    -2.2420 ha         1 10W       0.127000
     47 H16         -3.2240    -3.3050     1.4840 ha         1 10W       0.109000
     48 H17         -5.0060    -4.9540     1.9430 ha         1 10W       0.108500
     49 H18         -7.2810    -4.6420     0.9740 ha         1 10W       0.114000
     50 H19         -7.7610    -2.6600    -0.4590 ha         1 10W       0.108500
     51 H20         -5.9910    -1.0010    -0.9180 ha         1 10W       0.109000
     52 H21         -2.2790     1.4870     2.0640 hn         1 10W       0.508000
@<TRIPOS>BOND
     1     1     2 1   
     2     1     7 2   
     3     1     8 1   
     4     2     3 1   
     5     2     6 1   
     6     3     4 1   
     7     3     5 2   
     8     4     9 1   
     9     4    52 1   
    10     5    33 1   
    11     6    34 1   
    12     6    35 1   
    13     6    36 1   
    14     8     9 1   
    15     8    12 1   
    16     8    37 1   
    17     9    10 1   
    18     9    13 1   
    19    10    11 1   
    20    10    38 1   
    21    10    39 1   
    22    11    12 1   
    23    11    27 1   
    24    12    40 1   
    25    12    41 1   
    26    13    14 2   
    27    13    17 1   
    28    14    15 1   
    29    14    42 1   
    30    15    16 2   
    31    15    43 1   
    32    16    17 1   
    33    16    18 1   
    34    18    19 ar  
    35    18    23 ar  
    36    19    20 ar  
    37    19    44 1   
    38    20    21 ar  
    39    20    24 1   
    40    21    22 ar  
    41    21    26 1   
    42    22    23 ar  
    43    22    45 1   
    44    23    46 1   
    45    24    25 3   
    46    27    28 ar  
    47    27    32 ar  
    48    28    29 ar  
    49    28    47 1   
    50    29    30 ar  
    51    29    48 1   
    52    30    31 ar  
    53    30    49 1   
    54    31    32 ar  
    55    31    50 1   
    56    32    51 1   
@<TRIPOS>SUBSTRUCTURE
     1 10W         1 TEMP              0 ****  ****    0 ROOT
