@<TRIPOS>MOLECULE
10W
   52    56     1     0     0
SMALL
abcg2


@<TRIPOS>ATOM
      1 C1          -2.0280     2.0430    -1.5000 c          1 10W       0.588000
      2 N1          -2.1000     2.9750    -0.4970 n          1 10W      -0.381300
      3 C2          -2.3040     2.6480     0.8530 c2         1 10W       0.691800
      4 N2          -2.2120     1.3210     1.1650 nu         1 10W      -0.899400
      5 N3          -2.5790     3.4840     1.7710 n2         1 10W      -0.885100
      6 C3          -2.0830     4.3880    -0.8450 c3         1 10W       0.072300
      7 O1          -1.9720     2.3560    -2.6710 o          1 10W      -0.525000
      8 C4          -2.0320     0.5990    -1.0840 c5         1 10W      -0.168700
      9 C5          -1.5200     0.3710     0.3380 c5         1 10W       0.311500
     10 C6          -2.0670    -1.0270     0.6420 c5         1 10W       0.241800
     11 N4          -3.3230    -1.0540    -0.0650 nh         1 10W      -0.845400
     12 C7          -3.4380    -0.0120    -1.0580 c5         1 10W       0.255800
     13 C8          -0.0270     0.4830     0.4820 cc         1 10W      -0.250300
     14 C9           0.6750     1.3340     1.2830 cd         1 10W      -0.106000
     15 C10          2.0790     1.1870     1.1580 cd         1 10W      -0.120000
     16 C11          2.4410     0.2250     0.2590 cc         1 10W      -0.152000
     17 S1           1.0420    -0.5140    -0.4330 ss         1 10W       0.223000
     18 C12          3.7870    -0.1980    -0.1230 ca         1 10W      -0.028000
     19 C13          4.8460    -0.0240     0.7630 ca         1 10W      -0.032000
     20 C14          6.1360    -0.4040     0.4040 ca         1 10W      -0.058000
     21 C15          6.3590    -0.9750    -0.8430 ca         1 10W       0.216000
     22 C16          5.3260    -1.1670    -1.7340 ca         1 10W      -0.153000
     23 C17          4.0500    -0.7720    -1.3710 ca         1 10W      -0.058000
     24 C18          7.2250    -0.2270     1.3040 cg         1 10W       0.323000
     25 N5           8.1010    -0.0820     2.0370 n1         1 10W      -0.430000
     26 F1           7.5980    -1.3370    -1.1640 f          1 10W      -0.156000
     27 C19         -4.3160    -1.9560     0.1870 ca         1 10W       0.350000
     28 C20         -4.1310    -3.0110     1.0970 ca         1 10W      -0.192500
     29 C21         -5.1520    -3.9140     1.3480 ca         1 10W      -0.063000
     30 C22         -6.3800    -3.8080     0.7060 ca         1 10W      -0.164000
     31 C23         -6.5660    -2.7730    -0.2010 ca         1 10W      -0.063000
     32 C24         -5.5590    -1.8580    -0.4620 ca         1 10W      -0.192500
     33 H1          -2.7120     4.4270     1.4330 hn         1 10W       0.405400
     34 H3          -3.0790     4.8260    -0.7720 h1         1 10W       0.055033
     35 H4          -1.4060     4.9240    -0.1830 h1         1 10W       0.055033
     36 H5          -1.7300     4.5030    -1.8620 h1         1 10W       0.055033
     37 H6          -1.4160     0.0530    -1.8010 hc         1 10W       0.098700
     38 H7          -1.3720    -1.7990     0.2900 h1         1 10W       0.057700
     39 H8          -2.1900    -1.1690     1.7190 h1         1 10W       0.057700
     40 H9          -4.2010     0.7280    -0.7910 h1         1 10W       0.057700
     41 H10         -3.7010    -0.4070    -2.0420 h1         1 10W       0.057700
     42 H11          0.2120     2.0530     1.9440 ha         1 10W       0.147000
     43 H12          2.7900     1.7920     1.7030 ha         1 10W       0.141000
     44 H13          4.6800     0.3970     1.7450 ha         1 10W       0.134000
     45 H14          5.5160    -1.6100    -2.7030 ha         1 10W       0.143000
     46 H15          3.2500    -0.9070    -2.0880 ha         1 10W       0.127000
     47 H16         -3.1850    -3.1360     1.6070 ha         1 10W       0.109000
     48 H17         -4.9780    -4.7160     2.0540 ha         1 10W       0.108500
     49 H18         -7.1720    -4.5170     0.9070 ha         1 10W       0.114000
     50 H19         -7.5130    -2.6690    -0.7160 ha         1 10W       0.108500
     51 H20         -5.7460    -1.0620    -1.1700 ha         1 10W       0.109000
     52 H21         -2.2460     1.1400     2.1570 hn         1 10W       0.508000
@<TRIPOS>BOND
     1     1     2 1   
     2     1     7 2   
     3     1     8 1   
     4     2     3 1   
     5     2     6 1   
     6     3     4 1   
     7     3     5 2   
     8     4     9 1   
     9     4    52 1   
    10     5    33 1   
    11     6    34 1   
    12     6    35 1   
    13     6    36 1   
    14     8     9 1   
    15     8    12 1   
    16     8    37 1   
    17     9    10 1   
    18     9    13 1   
    19    10    11 1   
    20    10    38 1   
    21    10    39 1   
    22    11    12 1   
    23    11    27 1   
    24    12    40 1   
    25    12    41 1   
    26    13    14 2   
    27    13    17 1   
    28    14    15 1   
    29    14    42 1   
    30    15    16 2   
    31    15    43 1   
    32    16    17 1   
    33    16    18 1   
    34    18    19 ar  
    35    18    23 ar  
    36    19    20 ar  
    37    19    44 1   
    38    20    21 ar  
    39    20    24 1   
    40    21    22 ar  
    41    21    26 1   
    42    22    23 ar  
    43    22    45 1   
    44    23    46 1   
    45    24    25 3   
    46    27    28 ar  
    47    27    32 ar  
    48    28    29 ar  
    49    28    47 1   
    50    29    30 ar  
    51    29    48 1   
    52    30    31 ar  
    53    30    49 1   
    54    31    32 ar  
    55    31    50 1   
    56    32    51 1   
@<TRIPOS>SUBSTRUCTURE
     1 10W         1 TEMP              0 ****  ****    0 ROOT
