@<TRIPOS>MOLECULE
10X
   50    50     1     0     0
SMALL
bcc


@<TRIPOS>ATOM
      1 CAA          8.3060    -1.3630    -1.4610 c3         1 10X      -0.085100
      2 CAH          6.8000    -1.2170    -1.2550 c3         1 10X      -0.047200
      3 CAD          6.2810    -2.1740    -0.2270 c2         1 10X      -0.147200
      4 CAF          5.7980    -1.8820     0.9790 c2         1 10X      -0.171200
      5 CAO          5.6380    -0.5100     1.5670 c3         1 10X      -0.032200
      6 CAT          4.2270    -0.0060     1.4130 cx         1 10X       0.062100
      7 OAR          3.8460     0.4260     0.1140 op         1 10X      -0.385600
      8 CAU          3.9180     1.3960     1.1500 cx         1 10X       0.068100
      9 CAP          2.6170     2.0290     1.5690 c3         1 10X      -0.031200
     10 CAG          2.1460     3.0360     0.5610 c2         1 10X      -0.187200
     11 CAE          1.2180     2.8380    -0.3730 c2         1 10X      -0.132200
     12 CAI          0.4240     1.5920    -0.6080 c3         1 10X      -0.051200
     13 CAJ         -1.0560     1.7710    -0.2660 c3         1 10X      -0.072400
     14 CAK         -1.8850     0.5310    -0.5750 c3         1 10X      -0.076400
     15 CAL         -3.3610     0.6900    -0.2370 c3         1 10X      -0.075400
     16 CAM         -4.1830    -0.5550    -0.5460 c3         1 10X      -0.079400
     17 CAN         -5.6620    -0.4090    -0.2090 c3         1 10X      -0.053400
     18 CAQ         -6.4580    -1.6650    -0.5220 c3         1 10X      -0.203400
     19 CAS         -7.9610    -1.6210    -0.1970 c          1 10X       0.927600
     20 OAC         -8.4330    -0.5530     0.2410 o          1 10X      -0.849300
     21 OAB         -8.5960    -2.6770    -0.4070 o          1 10X      -0.849300
     22 H1           8.5710    -2.3860    -1.7330 hc         1 10X       0.029700
     23 H2           8.6600    -0.7060    -2.2570 hc         1 10X       0.029700
     24 H3           8.8520    -1.1110    -0.5510 hc         1 10X       0.029700
     25 H4           6.5550    -0.1870    -0.9920 hc         1 10X       0.051200
     26 H5           6.2930    -1.4170    -2.2030 hc         1 10X       0.051200
     27 H6           6.3320    -3.2230    -0.5070 ha         1 10X       0.113000
     28 H7           5.4580    -2.7030     1.6030 ha         1 10X       0.117000
     29 H8           5.8680    -0.5440     2.6350 hc         1 10X       0.050700
     30 H9           6.3330     0.2040     1.1190 hc         1 10X       0.050700
     31 H10          3.4680    -0.6000     1.9250 h1         1 10X       0.085700
     32 H11          4.7570     2.0870     1.0560 h1         1 10X       0.076700
     33 H12          1.8690     1.2510     1.7340 hc         1 10X       0.054700
     34 H13          2.7760     2.5220     2.5320 hc         1 10X       0.054700
     35 H14          2.6350     4.0050     0.5980 ha         1 10X       0.110000
     36 H15          0.9840     3.6690    -1.0350 ha         1 10X       0.113000
     37 H16          0.5090     1.3170    -1.6650 hc         1 10X       0.048700
     38 H17          0.8330     0.7520    -0.0440 hc         1 10X       0.048700
     39 H18         -1.1500     2.0220     0.7950 hc         1 10X       0.036200
     40 H19         -1.4590     2.6270    -0.8180 hc         1 10X       0.036200
     41 H20         -1.7810     0.2820    -1.6370 hc         1 10X       0.033200
     42 H21         -1.4760    -0.3240    -0.0240 hc         1 10X       0.033200
     43 H22         -3.4660     0.9410     0.8250 hc         1 10X       0.033700
     44 H23         -3.7720     1.5430    -0.7890 hc         1 10X       0.033700
     45 H24         -4.0740    -0.8050    -1.6070 hc         1 10X       0.023700
     46 H25         -3.7660    -1.4070     0.0050 hc         1 10X       0.023700
     47 H26         -5.7660    -0.1570     0.8510 hc         1 10X       0.037200
     48 H27         -6.0750     0.4420    -0.7600 hc         1 10X       0.037200
     49 H28         -6.3480    -1.9110    -1.5850 hc         1 10X       0.014200
     50 H29         -6.0180    -2.5190     0.0070 hc         1 10X       0.014200
@<TRIPOS>BOND
     1     1     2 1   
     2     1    22 1   
     3     1    23 1   
     4     1    24 1   
     5     2     3 1   
     6     2    25 1   
     7     2    26 1   
     8     3     4 2   
     9     3    27 1   
    10     4     5 1   
    11     4    28 1   
    12     5     6 1   
    13     5    29 1   
    14     5    30 1   
    15     6     7 1   
    16     6     8 1   
    17     6    31 1   
    18     7     8 1   
    19     8     9 1   
    20     8    32 1   
    21     9    10 1   
    22     9    33 1   
    23     9    34 1   
    24    10    11 2   
    25    10    35 1   
    26    11    12 1   
    27    11    36 1   
    28    12    13 1   
    29    12    37 1   
    30    12    38 1   
    31    13    14 1   
    32    13    39 1   
    33    13    40 1   
    34    14    15 1   
    35    14    41 1   
    36    14    42 1   
    37    15    16 1   
    38    15    43 1   
    39    15    44 1   
    40    16    17 1   
    41    16    45 1   
    42    16    46 1   
    43    17    18 1   
    44    17    47 1   
    45    17    48 1   
    46    18    19 1   
    47    18    49 1   
    48    18    50 1   
    49    19    20 1   
    50    19    21 1   
@<TRIPOS>SUBSTRUCTURE
     1 10X         1 TEMP              0 ****  ****    0 ROOT
