@<TRIPOS>MOLECULE
10X
   50    50     1     0     0
SMALL
No Charge or Current Charge


@<TRIPOS>ATOM
      1 CAA          8.2410    -1.5540    -1.3410 c3         1 10X      -0.085100
      2 CAH          6.7290    -1.8210    -1.2400 c3         1 10X      -0.047200
      3 CAD          6.3520    -2.4900     0.0690 c2         1 10X      -0.197200
      4 CAF          5.8800    -1.8920     1.1770 c2         1 10X      -0.221200
      5 CAO          5.6540    -0.4040     1.3890 c3         1 10X      -0.032200
      6 CAT          4.1810    -0.0380     1.2420 cx         1 10X       0.085300
      7 OAR          3.7390     0.4060    -0.0620 op         1 10X      -0.432000
      8 CAU          3.7780     1.3890     0.9990 cx         1 10X       0.091300
      9 CAP          2.4400     1.9060     1.5170 c3         1 10X      -0.031200
     10 CAG          2.0220     3.1800     0.8010 c2         1 10X      -0.237200
     11 CAE          1.1070     3.2960    -0.1780 c2         1 10X      -0.182200
     12 CAI          0.3110     2.1740    -0.8180 c3         1 10X      -0.051200
     13 CAJ         -1.0760     1.9990    -0.1660 c3         1 10X      -0.072400
     14 CAK         -1.9030     0.8560    -0.7950 c3         1 10X      -0.076400
     15 CAL         -3.2900     0.6810    -0.1390 c3         1 10X      -0.075400
     16 CAM         -4.1170    -0.4610    -0.7680 c3         1 10X      -0.079400
     17 CAN         -5.5050    -0.6360    -0.1120 c3         1 10X      -0.053400
     18 CAQ         -6.3360    -1.7810    -0.7400 c3         1 10X      -0.203400
     19 CAS         -7.7020    -1.8940    -0.0380 c          1 10X       0.717000
     20 OAC         -8.6290    -1.2250    -0.4670 o          1 10X      -0.744000
     21 OAB         -7.7870    -2.6130     0.9470 o          1 10X      -0.744000
     22 H1           8.8050    -2.4920    -1.2720 hc         1 10X       0.029700
     23 H2           8.4830    -1.0760    -2.2980 hc         1 10X       0.029700
     24 H3           8.5710    -0.8920    -0.5320 hc         1 10X       0.029700
     25 H4           6.1940    -0.8730    -1.3650 hc         1 10X       0.051200
     26 H5           6.4200    -2.4530    -2.0820 hc         1 10X       0.051200
     27 H6           6.4770    -3.5750     0.0570 ha         1 10X       0.163000
     28 H7           5.6380    -2.5000     2.0510 ha         1 10X       0.167000
     29 H8           5.9990    -0.1200     2.3910 hc         1 10X       0.050700
     30 H9           6.2580     0.1880     0.6910 hc         1 10X       0.050700
     31 H10          3.4870    -0.6860     1.7790 h1         1 10X       0.085700
     32 H11          4.5640     2.1400     0.9150 h1         1 10X       0.076700
     33 H12          1.6740     1.1280     1.4140 hc         1 10X       0.054700
     34 H13          2.5210     2.1000     2.5940 hc         1 10X       0.054700
     35 H14          2.5320     4.0740     1.1650 ha         1 10X       0.160000
     36 H15          0.8930     4.2810    -0.5990 ha         1 10X       0.163000
     37 H16          0.1850     2.3770    -1.8890 hc         1 10X       0.048700
     38 H17          0.8590     1.2260    -0.7550 hc         1 10X       0.048700
     39 H18         -0.9440     1.8010     0.9060 hc         1 10X       0.036200
     40 H19         -1.6340     2.9390    -0.2510 hc         1 10X       0.036200
     41 H20         -2.0330     1.0540    -1.8660 hc         1 10X       0.033200
     42 H21         -1.3430    -0.0840    -0.7080 hc         1 10X       0.033200
     43 H22         -3.1590     0.4840     0.9330 hc         1 10X       0.033700
     44 H23         -3.8500     1.6210    -0.2250 hc         1 10X       0.033700
     45 H24         -4.2470    -0.2640    -1.8390 hc         1 10X       0.023700
     46 H25         -3.5560    -1.4010    -0.6810 hc         1 10X       0.023700
     47 H26         -5.3740    -0.8320     0.9600 hc         1 10X       0.037200
     48 H27         -6.0640     0.3040    -0.1970 hc         1 10X       0.037200
     49 H28         -6.4690    -1.5120    -1.7950 hc         1 10X       0.014200
     50 H29         -5.7500    -2.6960    -0.5880 hc         1 10X       0.014200
@<TRIPOS>BOND
     1     1     2 1   
     2     1    22 1   
     3     1    23 1   
     4     1    24 1   
     5     2     3 1   
     6     2    25 1   
     7     2    26 1   
     8     3     4 2   
     9     3    27 1   
    10     4     5 1   
    11     4    28 1   
    12     5     6 1   
    13     5    29 1   
    14     5    30 1   
    15     6     7 1   
    16     6     8 1   
    17     6    31 1   
    18     7     8 1   
    19     8     9 1   
    20     8    32 1   
    21     9    10 1   
    22     9    33 1   
    23     9    34 1   
    24    10    11 2   
    25    10    35 1   
    26    11    12 1   
    27    11    36 1   
    28    12    13 1   
    29    12    37 1   
    30    12    38 1   
    31    13    14 1   
    32    13    39 1   
    33    13    40 1   
    34    14    15 1   
    35    14    41 1   
    36    14    42 1   
    37    15    16 1   
    38    15    43 1   
    39    15    44 1   
    40    16    17 1   
    41    16    45 1   
    42    16    46 1   
    43    17    18 1   
    44    17    47 1   
    45    17    48 1   
    46    18    19 1   
    47    18    49 1   
    48    18    50 1   
    49    19    20 1   
    50    19    21 1   
@<TRIPOS>SUBSTRUCTURE
     1 10X         1 TEMP              0 ****  ****    0 ROOT
