@<TRIPOS>MOLECULE
10Y
   50    50     1     0     0
SMALL
No Charge or Current Charge


@<TRIPOS>ATOM
      1 O1           8.8730     0.2700    -0.2800 o          1 10Y      -0.744000
      2 C1           7.9830     0.9120    -0.8170 c          1 10Y       0.717000
      3 O2           7.9680     2.1320    -0.8680 o          1 10Y      -0.744000
      4 C2           6.7880     0.1430    -1.4080 c3         1 10Y      -0.204400
      5 C3           5.6910    -0.0500    -0.3320 c3         1 10Y      -0.054400
      6 C4           4.4550    -0.8170    -0.8540 c3         1 10Y      -0.079400
      7 C5           3.3630    -1.0080     0.2210 c3         1 10Y      -0.074400
      8 C6           2.1280    -1.7750    -0.3010 c3         1 10Y      -0.076400
      9 C7           1.0350    -1.9650     0.7740 c3         1 10Y      -0.072400
     10 C8          -0.2000    -2.7290     0.2540 c3         1 10Y      -0.049200
     11 C9          -1.2620    -2.8940     1.3250 c2         1 10Y      -0.199200
     12 C10         -2.3320    -2.1050     1.5280 c2         1 10Y      -0.230200
     13 C11         -2.6980    -0.8490     0.7570 c3         1 10Y      -0.031200
     14 C12         -3.7470    -1.1490    -0.3120 cx         1 10Y       0.095300
     15 O3          -5.1180    -0.8130     0.0060 op         1 10Y      -0.441000
     16 C13         -4.4780    -0.0590    -1.0510 cx         1 10Y       0.089300
     17 C14         -4.2120     1.4220    -0.7850 c3         1 10Y      -0.033200
     18 C15         -5.2550     2.2990    -1.4590 c2         1 10Y      -0.222200
     19 C16         -6.3260     2.8720    -0.8810 c2         1 10Y      -0.198200
     20 C17         -6.7610     2.7420     0.5670 c3         1 10Y      -0.046200
     21 C18         -6.2800     3.9240     1.4260 c3         1 10Y      -0.086100
     22 H2           6.3190     0.7230    -2.2130 hc         1 10Y       0.014200
     23 H3           7.0920    -0.8670    -1.7110 hc         1 10Y       0.014200
     24 H4           6.1160    -0.5920     0.5220 hc         1 10Y       0.037700
     25 H5           5.3740     0.9320     0.0400 hc         1 10Y       0.037700
     26 H6           4.0280    -0.2750    -1.7070 hc         1 10Y       0.023700
     27 H7           4.7710    -1.8000    -1.2250 hc         1 10Y       0.023700
     28 H8           3.7890    -1.5510     1.0740 hc         1 10Y       0.034700
     29 H9           3.0460    -0.0250     0.5920 hc         1 10Y       0.034700
     30 H10          1.7020    -1.2320    -1.1550 hc         1 10Y       0.032200
     31 H11          2.4440    -2.7580    -0.6720 hc         1 10Y       0.032200
     32 H12          1.4590    -2.5080     1.6280 hc         1 10Y       0.038700
     33 H13          0.7190    -0.9830     1.1450 hc         1 10Y       0.038700
     34 H14         -0.6070    -2.2000    -0.6160 hc         1 10Y       0.042200
     35 H15          0.1100    -3.7150    -0.1120 hc         1 10Y       0.042200
     36 H16         -1.1090    -3.7680     1.9630 ha         1 10Y       0.167000
     37 H17         -3.0320    -2.3440     2.3320 ha         1 10Y       0.171000
     38 H18         -3.0660    -0.0900     1.4570 hc         1 10Y       0.055200
     39 H19         -1.8130    -0.4120     0.2790 hc         1 10Y       0.055200
     40 H20         -3.6030    -2.0950    -0.8350 h1         1 10Y       0.082700
     41 H21         -4.8190    -0.2850    -2.0610 h1         1 10Y       0.076700
     42 H22         -4.1860     1.6180     0.2930 hc         1 10Y       0.055200
     43 H23         -3.2150     1.6850    -1.1600 hc         1 10Y       0.055200
     44 H24         -5.0630     2.4700    -2.5200 ha         1 10Y       0.164000
     45 H25         -6.9920     3.4930    -1.4840 ha         1 10Y       0.161000
     46 H26         -7.8550     2.6800     0.6210 hc         1 10Y       0.050200
     47 H27         -6.3860     1.8090     1.0060 hc         1 10Y       0.050200
     48 H28         -5.1850     3.9840     1.4210 hc         1 10Y       0.031033
     49 H29         -6.6810     4.8700     1.0430 hc         1 10Y       0.031033
     50 H30         -6.6130     3.8040     2.4640 hc         1 10Y       0.031033
@<TRIPOS>BOND
     1     1     2 1   
     2     2     3 1   
     3     2     4 1   
     4     4     5 1   
     5     4    22 1   
     6     4    23 1   
     7     5     6 1   
     8     5    24 1   
     9     5    25 1   
    10     6     7 1   
    11     6    26 1   
    12     6    27 1   
    13     7     8 1   
    14     7    28 1   
    15     7    29 1   
    16     8     9 1   
    17     8    30 1   
    18     8    31 1   
    19     9    10 1   
    20     9    32 1   
    21     9    33 1   
    22    10    11 1   
    23    10    34 1   
    24    10    35 1   
    25    11    12 2   
    26    11    36 1   
    27    12    13 1   
    28    12    37 1   
    29    13    14 1   
    30    13    38 1   
    31    13    39 1   
    32    14    15 1   
    33    14    16 1   
    34    14    40 1   
    35    15    16 1   
    36    16    17 1   
    37    16    41 1   
    38    17    18 1   
    39    17    42 1   
    40    17    43 1   
    41    18    19 2   
    42    18    44 1   
    43    19    20 1   
    44    19    45 1   
    45    20    21 1   
    46    20    46 1   
    47    20    47 1   
    48    21    48 1   
    49    21    49 1   
    50    21    50 1   
@<TRIPOS>SUBSTRUCTURE
     1 10Y         1 TEMP              0 ****  ****    0 ROOT
