@<TRIPOS>MOLECULE
10Y
   50    50     1     0     0
SMALL
abcg2


@<TRIPOS>ATOM
      1 O1           9.0660    -0.7030     0.8110 o          1 10Y      -0.744000
      2 C1           8.9360    -0.7440    -0.4280 c          1 10Y       0.717000
      3 O2           9.8610    -0.7070    -1.2680 o          1 10Y      -0.744000
      4 C2           7.5130    -0.8610    -1.0010 c3         1 10Y      -0.204400
      5 C3           6.3770    -0.8520     0.0090 c3         1 10Y      -0.054400
      6 C4           5.0100    -1.0120    -0.6460 c3         1 10Y      -0.079400
      7 C5           3.8560    -1.0090     0.3490 c3         1 10Y      -0.074400
      8 C6           2.4980    -1.2040    -0.3130 c3         1 10Y      -0.076400
      9 C7           1.3360    -1.2000     0.6720 c3         1 10Y      -0.072400
     10 C8          -0.0120    -1.4390    -0.0090 c3         1 10Y      -0.049200
     11 C9          -1.1490    -1.4850     0.9620 c2         1 10Y      -0.199200
     12 C10         -2.2840    -0.7900     0.9220 c2         1 10Y      -0.230200
     13 C11         -2.7050     0.1950    -0.1290 c3         1 10Y      -0.031200
     14 C12         -3.7120    -0.4260    -1.0640 cx         1 10Y       0.095300
     15 O3          -5.0170    -0.6710    -0.5570 op         1 10Y      -0.441000
     16 C13         -4.8800     0.2550    -1.6240 cx         1 10Y       0.089300
     17 C14         -5.2570     1.6880    -1.3480 c3         1 10Y      -0.033200
     18 C15         -6.7460     1.8320    -1.2260 c2         1 10Y      -0.222200
     19 C16         -7.4390     1.8900    -0.0900 c2         1 10Y      -0.198200
     20 C17         -6.9000     1.8610     1.3050 c3         1 10Y      -0.046200
     21 C18         -7.1330     3.1830     2.0330 c3         1 10Y      -0.086100
     22 H2           7.3680    -0.0520    -1.7260 hc         1 10Y       0.014200
     23 H3           7.4640    -1.7810    -1.5970 hc         1 10Y       0.014200
     24 H4           6.5230    -1.6550     0.7380 hc         1 10Y       0.037700
     25 H5           6.3970     0.0800     0.5830 hc         1 10Y       0.037700
     26 H6           4.8590    -0.2090    -1.3760 hc         1 10Y       0.023700
     27 H7           4.9890    -1.9460    -1.2190 hc         1 10Y       0.023700
     28 H8           4.0130    -1.8010     1.0900 hc         1 10Y       0.034700
     29 H9           3.8580    -0.0670     0.9080 hc         1 10Y       0.034700
     30 H10          2.3420    -0.4170    -1.0600 hc         1 10Y       0.032200
     31 H11          2.4980    -2.1500    -0.8670 hc         1 10Y       0.032200
     32 H12          1.4980    -1.9720     1.4320 hc         1 10Y       0.038700
     33 H13          1.3100    -0.2440     1.2060 hc         1 10Y       0.038700
     34 H14         -0.1750    -0.6750    -0.7720 hc         1 10Y       0.042200
     35 H15          0.0330    -2.3960    -0.5420 hc         1 10Y       0.042200
     36 H16         -1.0160    -2.1780     1.7890 ha         1 10Y       0.167000
     37 H17         -3.0120    -0.9600     1.7100 ha         1 10Y       0.171000
     38 H18         -3.1180     1.0820     0.3560 hc         1 10Y       0.055200
     39 H19         -1.8550     0.5300    -0.7270 hc         1 10Y       0.055200
     40 H20         -3.3000    -1.2530    -1.6440 h1         1 10Y       0.082700
     41 H21         -5.2490    -0.1180    -2.5810 h1         1 10Y       0.076700
     42 H22         -4.7520     2.0590    -0.4570 hc         1 10Y       0.055200
     43 H23         -4.8990     2.2920    -2.1860 hc         1 10Y       0.055200
     44 H24         -7.2970     1.8640    -2.1610 ha         1 10Y       0.164000
     45 H25         -8.5190     1.9890    -0.1660 ha         1 10Y       0.161000
     46 H26         -7.4000     1.0590     1.8570 hc         1 10Y       0.050200
     47 H27         -5.8370     1.6150     1.3120 hc         1 10Y       0.050200
     48 H28         -6.5970     3.9990     1.5460 hc         1 10Y       0.031033
     49 H29         -8.1930     3.4460     2.0480 hc         1 10Y       0.031033
     50 H30         -6.7920     3.1280     3.0670 hc         1 10Y       0.031033
@<TRIPOS>BOND
     1     1     2 1   
     2     2     3 1   
     3     2     4 1   
     4     4     5 1   
     5     4    22 1   
     6     4    23 1   
     7     5     6 1   
     8     5    24 1   
     9     5    25 1   
    10     6     7 1   
    11     6    26 1   
    12     6    27 1   
    13     7     8 1   
    14     7    28 1   
    15     7    29 1   
    16     8     9 1   
    17     8    30 1   
    18     8    31 1   
    19     9    10 1   
    20     9    32 1   
    21     9    33 1   
    22    10    11 1   
    23    10    34 1   
    24    10    35 1   
    25    11    12 2   
    26    11    36 1   
    27    12    13 1   
    28    12    37 1   
    29    13    14 1   
    30    13    38 1   
    31    13    39 1   
    32    14    15 1   
    33    14    16 1   
    34    14    40 1   
    35    15    16 1   
    36    16    17 1   
    37    16    41 1   
    38    17    18 1   
    39    17    42 1   
    40    17    43 1   
    41    18    19 2   
    42    18    44 1   
    43    19    20 1   
    44    19    45 1   
    45    20    21 1   
    46    20    46 1   
    47    20    47 1   
    48    21    48 1   
    49    21    49 1   
    50    21    50 1   
@<TRIPOS>SUBSTRUCTURE
     1 10Y         1 TEMP              0 ****  ****    0 ROOT
