@<TRIPOS>MOLECULE
10Z
   52    55     1     0     0
SMALL
No Charge or Current Charge


@<TRIPOS>ATOM
      1 C29         10.1870    -0.6240     2.2600 c3         1 10Z       0.143900
      2 O28          9.3830    -0.3070     1.1130 os         1 10Z      -0.435000
      3 C27          9.1620     1.1040     0.9100 c3         1 10Z       0.159600
      4 C26          8.2800     1.3160    -0.3530 c3         1 10Z       0.160800
      5 N25          6.9010     0.7900    -0.1870 n7         1 10Z      -0.850400
      6 C24          6.0100     0.9950    -1.3400 c3         1 10Z       0.211100
      7 C18          4.6220     0.4480    -1.0380 ca         1 10Z      -0.116300
      8 C20          3.5920     1.3100    -0.6140 ca         1 10Z      -0.070500
      9 C22          2.3100     0.8010    -0.3390 ca         1 10Z      -0.152500
     10 C23          2.0370    -0.5720    -0.4910 ca         1 10Z       0.315000
     11 C21          3.0720    -1.4310    -0.8980 ca         1 10Z      -0.152500
     12 C19          4.3560    -0.9270    -1.1750 ca         1 10Z      -0.070500
     13 N17          0.7810    -1.1250    -0.2160 nu         1 10Z      -0.924900
     14 C8          -0.5220    -0.6430    -0.2270 ca         1 10Z       0.394900
     15 N10         -1.4380    -1.5040     0.2530 nb         1 10Z      -0.256000
     16 C12         -2.7260    -1.1020     0.2580 ca         1 10Z       0.091000
     17 C14         -3.7460    -1.9380     0.7430 ca         1 10Z      -0.111000
     18 C13         -5.0850    -1.5090     0.7430 ca         1 10Z      -0.060000
     19 C15         -5.4470    -0.2280     0.2570 cp         1 10Z      -0.069000
     20 C16         -4.4120     0.6090    -0.2310 ca         1 10Z      -0.035000
     21 C11         -3.0740     0.1760    -0.2290 ca         1 10Z      -0.201000
     22 C9          -2.0400     0.9980    -0.7160 ca         1 10Z       0.175900
     23 N7          -0.7580     0.5880    -0.7170 nb         1 10Z      -0.214000
     24 C2          -6.8750     0.2270     0.2590 cp         1 10Z       0.011000
     25 C4          -7.9480    -0.6750     0.0700 ca         1 10Z      -0.159000
     26 C6          -9.2730    -0.2080     0.0780 ca         1 10Z       0.335900
     27 N5          -9.5940     1.0920     0.2620 nb         1 10Z      -0.662000
     28 C3          -8.5800     1.9680     0.4450 ca         1 10Z       0.335900
     29 C1          -7.2290     1.5840     0.4490 ca         1 10Z      -0.159000
     30 H1          10.3110    -1.7110     2.3500 h1         1 10Z       0.026367
     31 H2          11.1830    -0.1710     2.1760 h1         1 10Z       0.026367
     32 H3           9.7140    -0.2570     3.1810 h1         1 10Z       0.026367
     33 H4           8.6670     1.5510     1.7820 h1         1 10Z       0.018700
     34 H5          10.1200     1.6200     0.7620 h1         1 10Z       0.018700
     35 H6           8.2450     2.3940    -0.5630 h1         1 10Z       0.037200
     36 H7           8.7730     0.8350    -1.2090 h1         1 10Z       0.037200
     37 H8           6.4740     1.2510     0.6240 hn         1 10Z       0.410000
     38 H10          5.9320     2.0640    -1.5800 h1         1 10Z       0.034200
     39 H11          6.4100     0.4880    -2.2290 h1         1 10Z       0.034200
     40 H12          3.7850     2.3740    -0.4910 ha         1 10Z       0.122000
     41 H13          1.5410     1.4810     0.0110 ha         1 10Z       0.127500
     42 H14          2.8840    -2.4950    -1.0090 ha         1 10Z       0.127500
     43 H15          5.1460    -1.6040    -1.4920 ha         1 10Z       0.122000
     44 H16          0.8110    -2.1270    -0.0350 hn         1 10Z       0.510000
     45 H17         -3.4980    -2.9250     1.1250 ha         1 10Z       0.136000
     46 H18         -5.8470    -2.1770     1.1380 ha         1 10Z       0.119000
     47 H19         -4.6530     1.5940    -0.6250 ha         1 10Z       0.119000
     48 H20         -2.2380     1.9940    -1.1090 h4         1 10Z       0.024100
     49 H21         -7.7650    -1.7320    -0.0970 ha         1 10Z       0.123500
     50 H22        -10.1040    -0.8970    -0.0710 h4         1 10Z       0.019600
     51 H23         -8.8600     3.0100     0.5950 h4         1 10Z       0.019600
     52 H24         -6.4680     2.3400     0.6150 ha         1 10Z       0.123500
@<TRIPOS>BOND
     1     1     2 1   
     2     1    30 1   
     3     1    31 1   
     4     1    32 1   
     5     2     3 1   
     6     3     4 1   
     7     3    33 1   
     8     3    34 1   
     9     4     5 1   
    10     4    35 1   
    11     4    36 1   
    12     5     6 1   
    13     5    37 1   
    14     6     7 1   
    15     6    38 1   
    16     6    39 1   
    17     7     8 ar  
    18     7    12 ar  
    19     8     9 ar  
    20     8    40 1   
    21     9    10 ar  
    22     9    41 1   
    23    10    11 ar  
    24    10    13 1   
    25    11    12 ar  
    26    11    42 1   
    27    12    43 1   
    28    13    14 1   
    29    13    44 1   
    30    14    15 ar  
    31    14    23 ar  
    32    15    16 ar  
    33    16    17 ar  
    34    16    21 ar  
    35    17    18 ar  
    36    17    45 1   
    37    18    19 ar  
    38    18    46 1   
    39    19    20 ar  
    40    19    24 1   
    41    20    21 ar  
    42    20    47 1   
    43    21    22 ar  
    44    22    23 ar  
    45    22    48 1   
    46    24    25 ar  
    47    24    29 ar  
    48    25    26 ar  
    49    25    49 1   
    50    26    27 ar  
    51    26    50 1   
    52    27    28 ar  
    53    28    29 ar  
    54    28    51 1   
    55    29    52 1   
@<TRIPOS>SUBSTRUCTURE
     1 10Z         1 TEMP              0 ****  ****    0 ROOT
