@<TRIPOS>MOLECULE
10Z
   52    55     1     0     0
SMALL
abcg2


@<TRIPOS>ATOM
      1 C29         10.3610    -1.1360     1.3610 c3         1 10Z       0.143900
      2 O28          9.3790    -0.6310     0.4960 os         1 10Z      -0.435000
      3 C27          9.2990     0.7700     0.5390 c3         1 10Z       0.159600
      4 C26          8.2360     1.2660    -0.4150 c3         1 10Z       0.160800
      5 N25          6.9120     0.8110    -0.0430 n7         1 10Z      -0.850400
      6 C24          5.8800     1.3100    -0.9280 c3         1 10Z       0.211100
      7 C18          4.5240     0.7650    -0.5710 ca         1 10Z      -0.116300
      8 C20          3.3920     1.5690    -0.6130 ca         1 10Z      -0.070500
      9 C22          2.1240     1.0810    -0.3260 ca         1 10Z      -0.152500
     10 C23          1.9600    -0.2600     0.0210 ca         1 10Z       0.315000
     11 C21          3.0970    -1.0750     0.0780 ca         1 10Z      -0.152500
     12 C19          4.3510    -0.5700    -0.2100 ca         1 10Z      -0.070500
     13 N17          0.7500    -0.8660     0.3550 nu         1 10Z      -0.924900
     14 C8          -0.5410    -0.4760     0.1930 ca         1 10Z       0.394900
     15 N10         -1.4500    -1.3280     0.6200 nb         1 10Z      -0.256000
     16 C12         -2.7390    -0.9810     0.4700 ca         1 10Z       0.091000
     17 C14         -3.7720    -1.8460     0.9010 ca         1 10Z      -0.111000
     18 C13         -5.0790    -1.4820     0.7390 ca         1 10Z      -0.060000
     19 C15         -5.4510    -0.2430     0.1540 cp         1 10Z      -0.069000
     20 C16         -4.4550     0.6070    -0.2680 ca         1 10Z      -0.035000
     21 C11         -3.1050     0.2490    -0.1190 ca         1 10Z      -0.201000
     22 C9          -2.0310     1.0630    -0.5360 ca         1 10Z       0.175900
     23 N7          -0.7840     0.7220    -0.3900 nb         1 10Z      -0.214000
     24 C2          -6.8720     0.1150     0.0040 cp         1 10Z       0.011000
     25 C4          -7.8480    -0.8500    -0.2360 ca         1 10Z      -0.159000
     26 C6          -9.1700    -0.4580    -0.3750 ca         1 10Z       0.335900
     27 N5          -9.5780     0.8020    -0.2920 nb         1 10Z      -0.662000
     28 C3          -8.6500     1.7240    -0.0620 ca         1 10Z       0.335900
     29 C1          -7.3030     1.4380     0.0930 ca         1 10Z      -0.159000
     30 H1          10.3630    -2.2230     1.2760 h1         1 10Z       0.026367
     31 H2          11.3640    -0.7690     1.1080 h1         1 10Z       0.026367
     32 H3          10.1660    -0.8720     2.4080 h1         1 10Z       0.026367
     33 H4           9.0750     1.1160     1.5600 h1         1 10Z       0.018700
     34 H5          10.2600     1.2260     0.2620 h1         1 10Z       0.018700
     35 H6           8.3200     2.3630    -0.4560 h1         1 10Z       0.037200
     36 H7           8.4590     0.9060    -1.4250 h1         1 10Z       0.037200
     37 H8           6.7090     1.1160     0.9020 hn         1 10Z       0.410000
     38 H10          5.8300     2.4100    -0.9600 h1         1 10Z       0.034200
     39 H11          6.1360     0.9960    -1.9470 h1         1 10Z       0.034200
     40 H12          3.4940     2.6170    -0.8710 ha         1 10Z       0.122000
     41 H13          1.2770     1.7440    -0.3700 ha         1 10Z       0.127500
     42 H14          2.9920    -2.1190     0.3490 ha         1 10Z       0.127500
     43 H15          5.2120    -1.2250    -0.1520 ha         1 10Z       0.122000
     44 H16          0.8310    -1.7940     0.7450 hn         1 10Z       0.510000
     45 H17         -3.5100    -2.7900     1.3610 ha         1 10Z       0.136000
     46 H18         -5.8530    -2.1530     1.0880 ha         1 10Z       0.119000
     47 H19         -4.6950     1.5530    -0.7400 ha         1 10Z       0.119000
     48 H20         -2.2320     2.0220    -1.0050 h4         1 10Z       0.024100
     49 H21         -7.5930    -1.8970    -0.3350 ha         1 10Z       0.123500
     50 H22         -9.9330    -1.2040    -0.5680 h4         1 10Z       0.019600
     51 H23         -8.9920     2.7510     0.0110 h4         1 10Z       0.019600
     52 H24         -6.6100     2.2430     0.3000 ha         1 10Z       0.123500
@<TRIPOS>BOND
     1     1     2 1   
     2     1    30 1   
     3     1    31 1   
     4     1    32 1   
     5     2     3 1   
     6     3     4 1   
     7     3    33 1   
     8     3    34 1   
     9     4     5 1   
    10     4    35 1   
    11     4    36 1   
    12     5     6 1   
    13     5    37 1   
    14     6     7 1   
    15     6    38 1   
    16     6    39 1   
    17     7     8 ar  
    18     7    12 ar  
    19     8     9 ar  
    20     8    40 1   
    21     9    10 ar  
    22     9    41 1   
    23    10    11 ar  
    24    10    13 1   
    25    11    12 ar  
    26    11    42 1   
    27    12    43 1   
    28    13    14 1   
    29    13    44 1   
    30    14    15 ar  
    31    14    23 ar  
    32    15    16 ar  
    33    16    17 ar  
    34    16    21 ar  
    35    17    18 ar  
    36    17    45 1   
    37    18    19 ar  
    38    18    46 1   
    39    19    20 ar  
    40    19    24 1   
    41    20    21 ar  
    42    20    47 1   
    43    21    22 ar  
    44    22    23 ar  
    45    22    48 1   
    46    24    25 ar  
    47    24    29 ar  
    48    25    26 ar  
    49    25    49 1   
    50    26    27 ar  
    51    26    50 1   
    52    27    28 ar  
    53    28    29 ar  
    54    28    51 1   
    55    29    52 1   
@<TRIPOS>SUBSTRUCTURE
     1 10Z         1 TEMP              0 ****  ****    0 ROOT
