@<TRIPOS>MOLECULE
110
   78    81     1     0     0
SMALL
abcg2


@<TRIPOS>ATOM
      1 N1           2.8910    -0.5220     0.3640 ns         1 110      -0.498900
      2 C1           4.2570    -0.1260     0.6180 c3         1 110       0.085700
      3 O3           2.2190     2.3490     0.5400 os         1 110      -0.447100
      4 C10          1.0500     2.9080     1.1630 c3         1 110       0.165600
      5 C11         -0.0380     3.0070     0.1150 c3         1 110      -0.087400
      6 C9           3.2640     2.0650     1.2920 c          1 110       0.570100
      7 O2           3.3410     2.2830     2.4750 o          1 110      -0.483000
      8 C14          2.1650    -1.3210     1.1690 c          1 110       0.649700
      9 O4           2.5020    -1.6770     2.2840 o          1 110      -0.571100
     10 C17         -0.4770    -2.9230    -0.8630 cc         1 110      -0.127000
     11 C18         -1.1930    -2.4970     0.2080 cd         1 110      -0.180300
     12 N3          -0.3330    -1.8250     1.0650 n          1 110       0.048200
     13 C15          0.9320    -1.8080     0.5010 cd         1 110      -0.187600
     14 C16          0.8670    -2.4860    -0.6800 cc         1 110      -0.137000
     15 C21         -2.2040    -1.3750     2.5620 c6         1 110       0.100800
     16 C20         -0.7590    -1.1130     2.1840 c          1 110       0.493800
     17 O6          -2.5050     0.0920    -0.5500 o          1 110      -0.521500
     18 O7          -3.4130     0.9810     1.6130 o          1 110      -0.521500
     19 C24         -5.2370     0.9900    -2.1360 ca         1 110      -0.081500
     20 C23         -5.4740     0.9040    -0.7680 ca         1 110      -0.100300
     21 C22         -5.0640    -0.3170    -0.0040 c3         1 110      -0.228100
     22 C26         -6.0530     1.9810    -0.1040 ca         1 110      -0.081500
     23 C27         -6.3990     3.1280    -0.8020 ca         1 110      -0.109000
     24 C28         -6.1620     3.2090    -2.1680 ca         1 110      -0.094000
     25 C29         -5.5840     2.1370    -2.8350 ca         1 110      -0.109000
     26 O5          -0.0340    -0.3710     2.7890 o          1 110      -0.430000
     27 C19         -2.6400    -2.6110     0.5480 c6         1 110       0.253100
     28 N4          -3.0700    -1.5030     1.3990 n3         1 110      -0.702500
     29 C12         -1.2890     3.6740     0.6780 c3         1 110      -0.075400
     30 C13         -2.3990     3.7970    -0.3570 c3         1 110      -0.083100
     31 C2           5.2360    -0.8930    -0.2870 c6         1 110      -0.068700
     32 C4           5.1890    -2.3870     0.0450 c6         1 110      -0.064900
     33 C5           6.1040    -3.2060    -0.8560 c6         1 110      -0.068400
     34 C6           5.7890    -2.9900    -2.3340 c6         1 110       0.162500
     35 N2           4.4410    -3.4620    -2.6310 n8         1 110      -1.004200
     36 C7           5.8930    -1.5020    -2.6550 c6         1 110      -0.068400
     37 C8           4.9760    -0.6560    -1.7770 c6         1 110      -0.064900
     38 C3           4.3850     1.4070     0.4950 c3         1 110       0.105300
     39 O1           5.6360     1.8580     0.9230 oh         1 110      -0.635000
     40 HN1          2.4900    -0.2860    -0.5310 hn         1 110       0.327500
     41 H1           4.4700    -0.3900     1.6580 h1         1 110       0.089700
     42 H101         1.2960     3.8930     1.5670 h1         1 110       0.054200
     43 H102         0.7340     2.2700     1.9920 h1         1 110       0.054200
     44 H111        -0.2930     2.0070    -0.2460 hc         1 110       0.054200
     45 H112         0.3270     3.5800    -0.7430 hc         1 110       0.054200
     46 H17         -0.8700    -3.4700    -1.7060 ha         1 110       0.139000
     47 H16          1.7050    -2.6890    -1.3330 ha         1 110       0.156000
     48 H211        -2.5490    -0.5910     3.2300 h1         1 110       0.111200
     49 H212        -2.2560    -2.3160     3.1160 h1         1 110       0.111200
     50 H221        -5.0630    -1.2130    -0.6250 h1         1 110       0.103700
     51 H222        -5.6830    -0.4950     0.8750 h1         1 110       0.103700
     52 H26         -6.2420     1.9200     0.9610 ha         1 110       0.121000
     53 H27         -6.8530     3.9600    -0.2800 ha         1 110       0.118500
     54 H28         -6.4350     4.1040    -2.7130 ha         1 110       0.116000
     55 H29         -5.4030     2.1940    -3.9000 ha         1 110       0.118500
     56 H191        -3.2400    -2.6680    -0.3600 h1         1 110       0.077200
     57 H192        -2.8400    -3.5290     1.1060 h1         1 110       0.077200
     58 H121        -1.0320     4.6670     1.0600 hc         1 110       0.044700
     59 H122        -1.6530     3.0970     1.5310 hc         1 110       0.044700
     60 H131        -2.0760     4.3920    -1.2140 hc         1 110       0.031367
     61 H132        -2.7060     2.8180    -0.7250 hc         1 110       0.031367
     62 H133        -3.2840     4.2750     0.0630 hc         1 110       0.031367
     63 H2           6.2430    -0.5270    -0.0530 hc         1 110       0.061700
     64 H41          5.4640    -2.5380     1.0920 hc         1 110       0.047200
     65 H42          4.1670    -2.7540    -0.0710 hc         1 110       0.047200
     66 H51          7.1470    -2.9270    -0.6810 hc         1 110       0.039700
     67 H52          6.0230    -4.2680    -0.6050 hc         1 110       0.039700
     68 H6           6.5530    -3.5180    -2.9240 h1         1 110       0.015700
     69 HD21         4.2610    -3.3640    -3.6220 hn         1 110       0.392000
     70 HD22         4.3760    -4.4540    -2.4360 hn         1 110       0.392000
     71 H71          6.9330    -1.1880    -2.5170 hc         1 110       0.039700
     72 H72          5.6580    -1.3290    -3.7100 hc         1 110       0.039700
     73 H81          3.9410    -0.9080    -2.0230 hc         1 110       0.047200
     74 H82          5.1160     0.3980    -2.0310 hc         1 110       0.047200
     75 H3           4.2880     1.7040    -0.5520 h1         1 110       0.098700
     76 HO1          5.7420     1.6490     1.8590 ho         1 110       0.462000
     77 S1          -3.3910    -0.0570     0.5960 s6         1 110       1.136100
     78 H24         -4.7880     0.1540    -2.6580 ha         1 110       0.121000
@<TRIPOS>BOND
     1     1     2 1   
     2     1     8 1   
     3     1    40 1   
     4     2    31 1   
     5     2    38 1   
     6     2    41 1   
     7     3     4 1   
     8     3     6 1   
     9     4     5 1   
    10     4    42 1   
    11     4    43 1   
    12     5    29 1   
    13     5    44 1   
    14     5    45 1   
    15     6     7 2   
    16     6    38 1   
    17     8     9 2   
    18     8    13 1   
    19    10    11 2   
    20    10    14 1   
    21    10    46 1   
    22    11    12 1   
    23    11    27 1   
    24    12    13 1   
    25    12    16 1   
    26    13    14 2   
    27    14    47 1   
    28    15    16 1   
    29    15    28 1   
    30    15    48 1   
    31    15    49 1   
    32    16    26 2   
    33    17    77 2   
    34    18    77 2   
    35    19    20 ar  
    36    19    25 ar  
    37    19    78 1   
    38    20    21 1   
    39    20    22 ar  
    40    21    50 1   
    41    21    51 1   
    42    21    77 1   
    43    22    23 ar  
    44    22    52 1   
    45    23    24 ar  
    46    23    53 1   
    47    24    25 ar  
    48    24    54 1   
    49    25    55 1   
    50    27    28 1   
    51    27    56 1   
    52    27    57 1   
    53    28    77 1   
    54    29    30 1   
    55    29    58 1   
    56    29    59 1   
    57    30    60 1   
    58    30    61 1   
    59    30    62 1   
    60    31    32 1   
    61    31    37 1   
    62    31    63 1   
    63    32    33 1   
    64    32    64 1   
    65    32    65 1   
    66    33    34 1   
    67    33    66 1   
    68    33    67 1   
    69    34    35 1   
    70    34    36 1   
    71    34    68 1   
    72    35    69 1   
    73    35    70 1   
    74    36    37 1   
    75    36    71 1   
    76    36    72 1   
    77    37    73 1   
    78    37    74 1   
    79    38    39 1   
    80    38    75 1   
    81    39    76 1   
@<TRIPOS>SUBSTRUCTURE
     1 110         1 TEMP              0 ****  ****    0 ROOT
