@<TRIPOS>MOLECULE
110
   78    81     1     0     0
SMALL
No Charge or Current Charge


@<TRIPOS>ATOM
      1 N1           3.0380    -0.7230     0.1700 ns         1 110      -0.498900
      2 C1           4.3870    -0.2400     0.5080 c3         1 110       0.085700
      3 O3           2.2580     2.1960     0.1560 os         1 110      -0.447100
      4 C10          1.1150     2.9190     0.6390 c3         1 110       0.165600
      5 C11          0.0480     2.8840    -0.4710 c3         1 110      -0.087400
      6 C9           3.3530     2.0900     0.9780 c          1 110       0.570100
      7 O2           3.4670     2.6800     2.0470 o          1 110      -0.483000
      8 C14          2.0060    -0.9050     1.0680 c          1 110       0.649700
      9 O4           2.1670    -0.6850     2.2570 o          1 110      -0.571100
     10 C17         -0.6790    -2.0940    -1.1880 cc         1 110      -0.127000
     11 C18         -1.3430    -2.0750     0.0030 cd         1 110      -0.180300
     12 N3          -0.5240    -1.6410     1.0440 n          1 110       0.048200
     13 C15          0.7280    -1.3810     0.4420 cd         1 110      -0.187600
     14 C16          0.6350    -1.6530    -0.9160 cc         1 110      -0.137000
     15 C21         -2.4550    -1.9420     2.5870 c6         1 110       0.100800
     16 C20         -0.9930    -1.4740     2.3750 c          1 110       0.493800
     17 O6          -2.7160     0.6170     0.5460 o          1 110      -0.521500
     18 O7          -4.4120     0.3500     2.4160 o          1 110      -0.521500
     19 C24         -5.4520     1.8300    -1.5420 ca         1 110      -0.081500
     20 C23         -5.8490     1.1340    -0.3840 ca         1 110      -0.100300
     21 C22         -5.2110    -0.2080    -0.0400 c3         1 110      -0.228100
     22 C26         -6.8370     1.6880     0.4530 ca         1 110      -0.081500
     23 C27         -7.4180     2.9290     0.1380 ca         1 110      -0.109000
     24 C28         -7.0140     3.6220    -1.0160 ca         1 110      -0.094000
     25 C29         -6.0310     3.0720    -1.8560 ca         1 110      -0.109000
     26 O5          -0.3470    -0.9980     3.2990 o          1 110      -0.430000
     27 C19         -2.8010    -2.4500     0.2120 c6         1 110       0.253100
     28 N4          -3.3500    -1.7350     1.3970 n3         1 110      -0.702500
     29 C12         -1.2250     3.6820    -0.1110 c3         1 110      -0.075400
     30 C13         -2.2800     3.6710    -1.2330 c3         1 110      -0.083100
     31 C2           5.4800    -1.1060    -0.2130 c6         1 110      -0.068700
     32 C4           5.3930    -2.6070     0.2010 c6         1 110      -0.064900
     33 C5           6.5150    -3.4490    -0.4620 c6         1 110      -0.068400
     34 C6           6.5140    -3.3170    -2.0090 c6         1 110       0.162500
     35 N2           5.3460    -3.9980    -2.6050 n8         1 110      -1.004200
     36 C7           6.5700    -1.8240    -2.4300 c6         1 110      -0.068400
     37 C8           5.4500    -0.9770    -1.7680 c6         1 110      -0.064900
     38 C3           4.5170     1.3050     0.3030 c3         1 110       0.105300
     39 O1           5.8170     1.7710     0.7590 oh         1 110      -0.635000
     40 HN1          2.8330    -0.9340    -0.7960 hn         1 110       0.327500
     41 H1           4.5370    -0.4140     1.5830 h1         1 110       0.089700
     42 H101         1.3780     3.9620     0.8630 h1         1 110       0.054200
     43 H102         0.7150     2.4550     1.5510 h1         1 110       0.054200
     44 H111        -0.2240     1.8390    -0.6720 hc         1 110       0.054200
     45 H112         0.4790     3.2900    -1.3940 hc         1 110       0.054200
     46 H17         -1.0670    -2.3830    -2.1610 ha         1 110       0.139000
     47 H16          1.4040    -1.5660    -1.6780 ha         1 110       0.156000
     48 H211        -2.8370    -1.4330     3.4830 h1         1 110       0.111200
     49 H212        -2.3880    -3.0120     2.8300 h1         1 110       0.111200
     50 H221        -4.8080    -0.6740    -0.9430 h1         1 110       0.103700
     51 H222        -5.9450    -0.8830     0.4130 h1         1 110       0.103700
     52 H26         -7.1540     1.1590     1.3500 ha         1 110       0.121000
     53 H27         -8.1790     3.3540     0.7880 ha         1 110       0.118500
     54 H28         -7.4630     4.5830    -1.2590 ha         1 110       0.116000
     55 H29         -5.7180     3.6070    -2.7500 ha         1 110       0.118500
     56 H191        -3.3840    -2.2490    -0.6970 h1         1 110       0.077200
     57 H192        -2.8620    -3.5360     0.3770 h1         1 110       0.077200
     58 H121        -0.9530     4.7220     0.1110 hc         1 110       0.044700
     59 H122        -1.6690     3.2660     0.8020 hc         1 110       0.044700
     60 H131        -1.8890     4.1500    -2.1390 hc         1 110       0.031367
     61 H132        -2.5680     2.6430    -1.4840 hc         1 110       0.031367
     62 H133        -3.1800     4.2130    -0.9190 hc         1 110       0.031367
     63 H2           6.4500    -0.7270     0.1390 hc         1 110       0.061700
     64 H41          5.4690    -2.6980     1.2940 hc         1 110       0.047200
     65 H42          4.4150    -3.0240    -0.0740 hc         1 110       0.047200
     66 H51          7.4900    -3.1210    -0.0750 hc         1 110       0.039700
     67 H52          6.4130    -4.5030    -0.1710 hc         1 110       0.039700
     68 H6           7.4040    -3.8280    -2.4060 h1         1 110       0.015700
     69 HD21         5.4410    -3.9780    -3.6260 hn         1 110       0.392000
     70 HD22         5.3980    -4.9960    -2.3770 hn         1 110       0.392000
     71 H71          7.5490    -1.4100    -2.1500 hc         1 110       0.039700
     72 H72          6.5070    -1.7360    -3.5240 hc         1 110       0.039700
     73 H81          4.4730    -1.2910    -2.1590 hc         1 110       0.047200
     74 H82          5.5810     0.0710    -2.0670 hc         1 110       0.047200
     75 H3           4.4110     1.5080    -0.7700 h1         1 110       0.098700
     76 HO1          5.7000     2.1010     1.6800 ho         1 110       0.462000
     77 S1          -3.8470    -0.0990     1.1400 s6         1 110       1.136100
     78 H24         -4.6910     1.4120    -2.1970 ha         1 110       0.121000
@<TRIPOS>BOND
     1     1     2 1   
     2     1     8 1   
     3     1    40 1   
     4     2    31 1   
     5     2    38 1   
     6     2    41 1   
     7     3     4 1   
     8     3     6 1   
     9     4     5 1   
    10     4    42 1   
    11     4    43 1   
    12     5    29 1   
    13     5    44 1   
    14     5    45 1   
    15     6     7 2   
    16     6    38 1   
    17     8     9 2   
    18     8    13 1   
    19    10    11 2   
    20    10    14 1   
    21    10    46 1   
    22    11    12 1   
    23    11    27 1   
    24    12    13 1   
    25    12    16 1   
    26    13    14 2   
    27    14    47 1   
    28    15    16 1   
    29    15    28 1   
    30    15    48 1   
    31    15    49 1   
    32    16    26 2   
    33    17    77 2   
    34    18    77 2   
    35    19    20 ar  
    36    19    25 ar  
    37    19    78 1   
    38    20    21 1   
    39    20    22 ar  
    40    21    50 1   
    41    21    51 1   
    42    21    77 1   
    43    22    23 ar  
    44    22    52 1   
    45    23    24 ar  
    46    23    53 1   
    47    24    25 ar  
    48    24    54 1   
    49    25    55 1   
    50    27    28 1   
    51    27    56 1   
    52    27    57 1   
    53    28    77 1   
    54    29    30 1   
    55    29    58 1   
    56    29    59 1   
    57    30    60 1   
    58    30    61 1   
    59    30    62 1   
    60    31    32 1   
    61    31    37 1   
    62    31    63 1   
    63    32    33 1   
    64    32    64 1   
    65    32    65 1   
    66    33    34 1   
    67    33    66 1   
    68    33    67 1   
    69    34    35 1   
    70    34    36 1   
    71    34    68 1   
    72    35    69 1   
    73    35    70 1   
    74    36    37 1   
    75    36    71 1   
    76    36    72 1   
    77    37    73 1   
    78    37    74 1   
    79    38    39 1   
    80    38    75 1   
    81    39    76 1   
@<TRIPOS>SUBSTRUCTURE
     1 110         1 TEMP              0 ****  ****    0 ROOT
