@<TRIPOS>MOLECULE
111
   53    54     1     0     0
SMALL
abcg2


@<TRIPOS>ATOM
      1 O5          -5.5560     1.5910    -0.7310 o          1 111      -0.524500
      2 S2          -4.4470     2.5270    -0.8300 s6         1 111       1.211100
      3 O4          -4.5070     3.6170    -1.7910 o          1 111      -0.524500
      4 C13         -4.1730     3.2280     0.7810 c3         1 111      -0.384100
      5 N2          -3.1100     1.6550    -1.2220 n7         1 111      -0.897300
      6 C17         -2.7920     0.3950    -0.5910 c5         1 111       0.220500
      7 C11         -1.8570     0.4900     0.6170 c5         1 111       0.190800
      8 C9          -2.0260    -0.5240    -1.5390 c5         1 111      -0.077400
      9 C8          -1.3570    -1.5470    -0.6130 c5         1 111       0.144500
     10 C20         -2.1900    -2.8170    -0.4990 c          1 111       0.607100
     11 OB          -3.2670    -2.8390     0.0630 o          1 111      -0.538100
     12 NA          -1.6520    -3.8570    -1.1530 ns         1 111      -0.379400
     13 OA          -2.2400    -5.0820    -1.0910 oh         1 111      -0.411100
     14 N1          -1.3330    -0.8650     0.6780 n3         1 111      -0.745500
     15 S1          -0.2260    -1.3120     1.8020 sy         1 111       1.193600
     16 O1          -0.6270    -0.6920     3.0530 o          1 111      -0.529000
     17 O2          -0.1170    -2.7580     1.6910 o          1 111      -0.529000
     18 C1           1.3100    -0.6080     1.3090 ca         1 111      -0.363500
     19 C2           1.6330     0.6940     1.6930 ca         1 111       0.023500
     20 C3           2.8190     1.2550     1.2750 ca         1 111      -0.200500
     21 C4           3.7060     0.5260     0.4730 ca         1 111       0.210100
     22 C5           3.3780    -0.7770     0.0950 ca         1 111      -0.200500
     23 C6           2.1840    -1.3380     0.5160 ca         1 111       0.023500
     24 O3           4.8360     1.1490     0.1280 os         1 111      -0.340100
     25 C7           5.8110     0.4530    -0.6430 c3         1 111       0.162600
     26 C10          7.0000     1.3660    -0.8420 c3         1 111      -0.084400
     27 C12          8.0930     0.6820    -1.6560 c3         1 111      -0.074400
     28 C14          9.3050     1.5810    -1.8630 c3         1 111      -0.089100
     29 H131        -3.2760     3.8420     0.7560 h1         1 111       0.103033
     30 H132        -5.0370     3.8420     1.0300 h1         1 111       0.103033
     31 H133        -4.0710     2.4320     1.5150 h1         1 111       0.103033
     32 HN2         -2.3210     2.2280    -1.5030 hn         1 111       0.486000
     33 H17         -3.7230    -0.0860    -0.2900 h1         1 111       0.121700
     34 H111        -2.3760     0.7470     1.5390 h1         1 111       0.057700
     35 H112        -1.0760     1.2380     0.4320 h1         1 111       0.057700
     36 H91         -2.6650    -0.9830    -2.2910 hc         1 111       0.067700
     37 H92         -1.2520     0.0440    -2.0600 hc         1 111       0.067700
     38 H8          -0.3490    -1.7680    -0.9820 h1         1 111       0.056700
     39 HNA         -0.6930    -3.8620    -1.4710 hn         1 111       0.333500
     40 HOA         -2.7700    -5.1670    -1.8940 ho         1 111       0.442000
     41 H2           0.9720     1.2690     2.3280 ha         1 111       0.132500
     42 H3           3.0780     2.2620     1.5760 ha         1 111       0.129500
     43 H5           4.0390    -1.3720    -0.5190 ha         1 111       0.129500
     44 H6           1.9560    -2.3550     0.2270 ha         1 111       0.132500
     45 H71          5.3870     0.1610    -1.6110 h1         1 111       0.039700
     46 H72          6.1160    -0.4620    -0.1230 h1         1 111       0.039700
     47 H101         7.4010     1.6620     0.1320 hc         1 111       0.058200
     48 H102         6.6830     2.2800    -1.3500 hc         1 111       0.058200
     49 H121         7.6900     0.3810    -2.6270 hc         1 111       0.039200
     50 H122         8.4000    -0.2390    -1.1530 hc         1 111       0.039200
     51 H141         9.7470     1.8730    -0.9090 hc         1 111       0.036367
     52 H142        10.0770     1.0790    -2.4470 hc         1 111       0.036367
     53 H143         9.0300     2.4940    -2.3930 hc         1 111       0.036367
@<TRIPOS>BOND
     1     1     2 2   
     2     2     3 2   
     3     2     4 1   
     4     2     5 1   
     5     4    29 1   
     6     4    30 1   
     7     4    31 1   
     8     5     6 1   
     9     5    32 1   
    10     6     7 1   
    11     6     8 1   
    12     6    33 1   
    13     7    14 1   
    14     7    34 1   
    15     7    35 1   
    16     8     9 1   
    17     8    36 1   
    18     8    37 1   
    19     9    10 1   
    20     9    14 1   
    21     9    38 1   
    22    10    11 2   
    23    10    12 1   
    24    12    13 1   
    25    12    39 1   
    26    13    40 1   
    27    14    15 1   
    28    15    16 2   
    29    15    17 2   
    30    15    18 1   
    31    18    19 ar  
    32    18    23 ar  
    33    19    20 ar  
    34    19    41 1   
    35    20    21 ar  
    36    20    42 1   
    37    21    22 ar  
    38    21    24 1   
    39    22    23 ar  
    40    22    43 1   
    41    23    44 1   
    42    24    25 1   
    43    25    26 1   
    44    25    45 1   
    45    25    46 1   
    46    26    27 1   
    47    26    47 1   
    48    26    48 1   
    49    27    28 1   
    50    27    49 1   
    51    27    50 1   
    52    28    51 1   
    53    28    52 1   
    54    28    53 1   
@<TRIPOS>SUBSTRUCTURE
     1 111         1 TEMP              0 ****  ****    0 ROOT
