@<TRIPOS>MOLECULE
111
   53    54     1     0     0
SMALL
No Charge or Current Charge


@<TRIPOS>ATOM
      1 O5          -3.0610     3.0710    -0.1310 o          1 111      -0.524500
      2 S2          -2.3810     2.7980    -1.3990 s6         1 111       1.211100
      3 O4          -2.7070     3.5820    -2.5890 o          1 111      -0.524500
      4 C13         -0.6180     2.8010    -1.1500 c3         1 111      -0.384100
      5 N2          -2.7320     1.2140    -1.8000 n7         1 111      -0.897300
      6 C17         -2.4840     0.2060    -0.7220 c5         1 111       0.220500
      7 C11         -1.0950    -0.4860    -0.8530 c5         1 111       0.190800
      8 C9          -3.3960    -1.0080    -1.0280 c5         1 111      -0.077400
      9 C8          -2.6650    -2.1980    -0.3170 c5         1 111       0.144500
     10 C20         -3.5070    -2.6830     0.9250 c          1 111       0.607100
     11 OB          -3.9280    -1.9920     1.8470 o          1 111      -0.538100
     12 NA          -3.7620    -4.0510     0.8200 ns         1 111      -0.379400
     13 OA          -4.3210    -4.7890     1.9350 oh         1 111      -0.411100
     14 N1          -1.3110    -1.6520     0.0230 n3         1 111      -0.745500
     15 S1          -0.0470    -2.7070     0.4340 sy         1 111       1.193600
     16 O1          -0.3190    -3.1470     1.8060 o          1 111      -0.529000
     17 O2           0.1040    -3.6450    -0.6830 o          1 111      -0.529000
     18 C1           1.3610    -1.5900     0.4780 ca         1 111      -0.363500
     19 C2           1.5630    -0.7670     1.6030 ca         1 111       0.023500
     20 C3           2.6460     0.1260     1.6280 ca         1 111      -0.200500
     21 C4           3.5290     0.2060     0.5410 ca         1 111       0.210100
     22 C5           3.3250    -0.6180    -0.5850 ca         1 111      -0.200500
     23 C6           2.2430    -1.5140    -0.6180 ca         1 111       0.023500
     24 O3           4.5720     1.1050     0.6270 os         1 111      -0.340100
     25 C7           5.5280     1.2710    -0.4330 c3         1 111       0.162600
     26 C10          6.5340     2.3510     0.0100 c3         1 111      -0.084400
     27 C12          7.6250     2.6290    -1.0470 c3         1 111      -0.074400
     28 C14          8.6320     3.7090    -0.6060 c3         1 111      -0.089100
     29 H131        -0.1430     2.3260    -2.0150 h1         1 111       0.103033
     30 H132        -0.3120     3.8490    -1.0660 h1         1 111       0.103033
     31 H133        -0.4030     2.2700    -0.2180 h1         1 111       0.103033
     32 HN2         -2.1300     1.0550    -2.6060 hn         1 111       0.486000
     33 H17         -2.6650     0.5780     0.3000 h1         1 111       0.121700
     34 H111        -0.2790     0.1550    -0.4990 h1         1 111       0.057700
     35 H112        -0.8730    -0.7930    -1.8850 h1         1 111       0.057700
     36 H91         -4.4210    -0.8520    -0.6720 hc         1 111       0.067700
     37 H92         -3.4640    -1.2000    -2.1050 hc         1 111       0.067700
     38 H8          -2.5770    -3.0320    -1.0280 h1         1 111       0.056700
     39 HNA         -3.2660    -4.6040     0.1220 hn         1 111       0.333500
     40 HOA         -5.0650    -5.2950     1.5300 ho         1 111       0.442000
     41 H2           0.8810    -0.8090     2.4510 ha         1 111       0.132500
     42 H3           2.8010     0.7620     2.4940 ha         1 111       0.129500
     43 H5           3.9900    -0.5770    -1.4420 ha         1 111       0.129500
     44 H6           2.0940    -2.1390    -1.4970 ha         1 111       0.132500
     45 H71          5.0310     1.5900    -1.3590 h1         1 111       0.039700
     46 H72          6.0620     0.3300    -0.6250 h1         1 111       0.039700
     47 H101         7.0090     2.0330     0.9460 hc         1 111       0.058200
     48 H102         5.9890     3.2790     0.2220 hc         1 111       0.058200
     49 H121         7.1510     2.9450    -1.9850 hc         1 111       0.039200
     50 H122         8.1690     1.7000    -1.2610 hc         1 111       0.039200
     51 H141         9.1490     3.4060     0.3120 hc         1 111       0.036367
     52 H142         9.3850     3.8720    -1.3870 hc         1 111       0.036367
     53 H143         8.1220     4.6620    -0.4190 hc         1 111       0.036367
@<TRIPOS>BOND
     1     1     2 2   
     2     2     3 2   
     3     2     4 1   
     4     2     5 1   
     5     4    29 1   
     6     4    30 1   
     7     4    31 1   
     8     5     6 1   
     9     5    32 1   
    10     6     7 1   
    11     6     8 1   
    12     6    33 1   
    13     7    14 1   
    14     7    34 1   
    15     7    35 1   
    16     8     9 1   
    17     8    36 1   
    18     8    37 1   
    19     9    10 1   
    20     9    14 1   
    21     9    38 1   
    22    10    11 2   
    23    10    12 1   
    24    12    13 1   
    25    12    39 1   
    26    13    40 1   
    27    14    15 1   
    28    15    16 2   
    29    15    17 2   
    30    15    18 1   
    31    18    19 ar  
    32    18    23 ar  
    33    19    20 ar  
    34    19    41 1   
    35    20    21 ar  
    36    20    42 1   
    37    21    22 ar  
    38    21    24 1   
    39    22    23 ar  
    40    22    43 1   
    41    23    44 1   
    42    24    25 1   
    43    25    26 1   
    44    25    45 1   
    45    25    46 1   
    46    26    27 1   
    47    26    47 1   
    48    26    48 1   
    49    27    28 1   
    50    27    49 1   
    51    27    50 1   
    52    28    51 1   
    53    28    52 1   
    54    28    53 1   
@<TRIPOS>SUBSTRUCTURE
     1 111         1 TEMP              0 ****  ****    0 ROOT
