@<TRIPOS>MOLECULE
112
   51    53     1     0     0
SMALL
abcg2


@<TRIPOS>ATOM
      1 NS           2.4760     1.9260     8.2290 nt         1 112      -0.640000
      2 C2S          2.3350     1.8370     6.8990 c          1 112       0.612100
      3 O2S          2.6320     2.7360     6.1290 o          1 112      -0.588100
      4 C1S          1.7980     0.5020     6.4240 c3         1 112      -0.086400
      5 PG           0.5110    -1.3850     4.5340 p5         1 112       1.279800
      6 S1G          1.0440     0.6770     4.7840 ss         1 112      -0.405400
      7 O2G          1.7710    -2.1840     4.4120 o          1 112      -0.799000
      8 O3G         -0.5280    -1.7450     5.5480 o          1 112      -0.799000
      9 PB          -1.3440    -2.1010     2.4300 p5         1 112       1.515800
     10 O1B         -1.0780    -3.5180     2.8200 o          1 112      -0.862500
     11 O2B         -2.6670    -1.4510     2.6600 o          1 112      -0.862500
     12 O3B         -0.1530    -1.1350     3.0590 os         1 112      -0.667800
     13 PA          -1.6520    -2.4110    -0.4400 p5         1 112       1.456800
     14 O1A         -0.6240    -2.8220    -1.4530 o          1 112      -0.865000
     15 O2A         -2.7370    -3.3640    -0.0500 o          1 112      -0.865000
     16 O3A         -0.8600    -1.8510     0.8720 os         1 112      -0.679800
     17 O5          -2.3070    -0.9690    -0.8910 os         1 112      -0.546400
     18 C5          -2.9580    -0.9150    -2.1380 c3         1 112       0.222600
     19 C4          -2.7940     0.4740    -2.7270 c5         1 112       0.154300
     20 O4          -1.4110     0.8300    -2.8210 os         1 112      -0.398000
     21 C3          -3.3420     0.5550    -4.1440 c5         1 112       0.097300
     22 O3          -3.7360     1.8760    -4.4090 oh         1 112      -0.714000
     23 C2          -2.1000     0.1830    -4.9600 c5         1 112       0.063300
     24 O2          -2.0980     0.6520    -6.2750 oh         1 112      -0.710000
     25 C1          -0.9990     0.8760    -4.1540 c5         1 112       0.325300
     26 N9           0.2940     0.2440    -4.2750 na         1 112      -0.291300
     27 C8           0.7110    -0.9190    -3.6820 cc         1 112       0.476700
     28 N7           1.9240    -1.2540    -4.0180 nd         1 112      -0.571100
     29 C7           2.3300    -0.2660    -4.8780 ca         1 112      -0.075600
     30 C6           3.5270    -0.0420    -5.5810 ca         1 112       0.429900
     31 N6           4.5740    -0.8670    -5.5060 nv         1 112      -1.082900
     32 N1           3.6100     1.0520    -6.3480 nb         1 112      -0.334000
     33 C10          2.5670     1.8770    -6.4120 ca         1 112       0.136900
     34 N3           1.3980     1.7720    -5.8070 nb         1 112      -0.207000
     35 C9           1.3300     0.6790    -5.0490 ca         1 112       0.101500
     36 HNS1         2.8850     2.7470     8.6450 hn         1 112       0.284000
     37 HNS2         2.2170     1.1750     8.8450 hn         1 112       0.284000
     38 H1S1         2.6300    -0.2060     6.3770 h1         1 112       0.062700
     39 H1S2         1.0710     0.1010     7.1310 h1         1 112       0.062700
     40 H5'1        -2.5640    -1.6650    -2.8330 h1         1 112       0.004700
     41 H5'2        -4.0310    -1.1130    -2.0270 h1         1 112       0.004700
     42 H4          -3.2870     1.2020    -2.0750 h1         1 112       0.102700
     43 H3          -4.1640    -0.1550    -4.3040 h1         1 112       0.047700
     44 HO3         -3.7120     2.0080    -5.3640 ho         1 112       0.496000
     45 H2          -1.9520    -0.9030    -4.9190 h1         1 112       0.072700
     46 HO2         -2.5560     0.0150    -6.8320 ho         1 112       0.493000
     47 H1          -0.8670     1.9050    -4.5050 h2         1 112       0.089700
     48 H8           0.0900    -1.4720    -2.9860 h5         1 112       0.169800
     49 HN61         5.3980    -0.6900    -6.0530 hn         1 112       0.494500
     50 HN62         4.5260    -1.7200    -4.9780 hn         1 112       0.494500
     51 H6           2.7010     2.7470    -7.0460 h5         1 112       0.016100
@<TRIPOS>BOND
     1     1     2 1   
     2     1    36 1   
     3     1    37 1   
     4     2     3 2   
     5     2     4 1   
     6     4     6 1   
     7     4    38 1   
     8     4    39 1   
     9     5     6 1   
    10     5     7 1   
    11     5     8 1   
    12     5    12 1   
    13     9    10 1   
    14     9    11 1   
    15     9    12 1   
    16     9    16 1   
    17    13    14 1   
    18    13    15 1   
    19    13    16 1   
    20    13    17 1   
    21    17    18 1   
    22    18    19 1   
    23    18    40 1   
    24    18    41 1   
    25    19    20 1   
    26    19    21 1   
    27    19    42 1   
    28    20    25 1   
    29    21    22 1   
    30    21    23 1   
    31    21    43 1   
    32    22    44 1   
    33    23    24 1   
    34    23    25 1   
    35    23    45 1   
    36    24    46 1   
    37    25    26 1   
    38    25    47 1   
    39    26    27 1   
    40    26    35 1   
    41    27    28 2   
    42    27    48 1   
    43    28    29 1   
    44    29    30 ar  
    45    29    35 ar  
    46    30    31 1   
    47    30    32 ar  
    48    31    49 1   
    49    31    50 1   
    50    32    33 ar  
    51    33    34 ar  
    52    33    51 1   
    53    34    35 ar  
@<TRIPOS>SUBSTRUCTURE
     1 112         1 TEMP              0 ****  ****    0 ROOT
