@<TRIPOS>MOLECULE
112
   51    53     1     0     0
SMALL
No Charge or Current Charge


@<TRIPOS>ATOM
      1 NS          -0.3530     3.4010     5.4550 nt         1 112      -0.640000
      2 C2S         -0.8900     2.8280     4.3550 c          1 112       0.612100
      3 O2S         -1.4960     3.5030     3.5390 o          1 112      -0.588100
      4 C1S         -0.6860     1.3140     4.2220 c3         1 112      -0.086400
      5 PG           0.9480    -1.2710     3.8530 p5         1 112       1.279800
      6 S1G          1.0910     0.8450     3.9170 ss         1 112      -0.405400
      7 O2G          2.3150    -1.8600     3.9940 o          1 112      -0.799000
      8 O3G         -0.0350    -1.7230     4.8820 o          1 112      -0.799000
      9 PB          -0.3350    -2.7040     1.9930 p5         1 112       1.515800
     10 O1B          0.3610    -3.9180     2.5190 o          1 112      -0.862500
     11 O2B         -1.7780    -2.6170     2.3720 o          1 112      -0.862500
     12 O3B          0.4020    -1.3580     2.3720 os         1 112      -0.667800
     13 PA          -1.0250    -3.3950    -0.4880 p5         1 112       1.456800
     14 O1A         -0.3880    -3.6150    -1.8210 o          1 112      -0.865000
     15 O2A         -1.4340    -4.7160     0.0780 o          1 112      -0.865000
     16 O3A         -0.0820    -2.5460     0.4460 os         1 112      -0.679800
     17 O5          -2.2880    -2.3940    -0.6170 os         1 112      -0.546400
     18 C5          -2.3150    -1.2780    -1.5230 c3         1 112       0.222600
     19 C4          -1.3090    -0.1550    -1.1040 c5         1 112       0.154300
     20 O4          -0.0700    -0.2920    -1.8550 os         1 112      -0.398000
     21 C3          -1.8170     1.2840    -1.4620 c5         1 112       0.097300
     22 O3          -1.1180     2.3250    -0.7660 oh         1 112      -0.714000
     23 C2          -1.4770     1.3070    -2.9780 c5         1 112       0.063300
     24 O2          -1.5200     2.6420    -3.5220 oh         1 112      -0.710000
     25 C1          -0.0400     0.6770    -2.9300 c5         1 112       0.325300
     26 N9           0.4920     0.0500    -4.1420 na         1 112      -0.291300
     27 C8          -0.2550    -0.4740    -5.2060 cc         1 112       0.476700
     28 N7           0.5490    -0.9430    -6.1850 nd         1 112      -0.571100
     29 C7           1.8340    -0.6960    -5.6930 ca         1 112      -0.075600
     30 C6           3.0890    -0.9680    -6.2790 ca         1 112       0.429900
     31 N6           3.2260    -1.5570    -7.4980 nv         1 112      -1.082900
     32 N1           4.2320    -0.6430    -5.6550 nb         1 112      -0.334000
     33 C10          4.1010    -0.0520    -4.4430 ca         1 112       0.136900
     34 N3           2.9430     0.2440    -3.8060 nb         1 112      -0.207000
     35 C9           1.8130    -0.0940    -4.4600 ca         1 112       0.101500
     36 HNS1        -0.4510     4.3960     5.5950 hn         1 112       0.284000
     37 HNS2         0.1630     2.8350     6.1130 hn         1 112       0.284000
     38 H1S1        -1.0300     0.8410     5.1510 h1         1 112       0.062700
     39 H1S2        -1.3050     0.9490     3.3930 h1         1 112       0.062700
     40 H5'1        -2.1050    -1.6040    -2.5500 h1         1 112       0.004700
     41 H5'2        -3.3280    -0.8560    -1.5230 h1         1 112       0.004700
     42 H4          -1.1070    -0.2350    -0.0280 h1         1 112       0.102700
     43 H3          -2.8990     1.3810    -1.2930 h1         1 112       0.047700
     44 HO3         -1.0360     3.0550    -1.4250 ho         1 112       0.496000
     45 H2          -2.1710     0.6530    -3.5250 h1         1 112       0.072700
     46 HO2         -2.4590     2.8460    -3.7500 ho         1 112       0.493000
     47 H1           0.6780     1.4630    -2.6650 h2         1 112       0.089700
     48 H8          -1.3400    -0.4880    -5.2160 h5         1 112       0.169800
     49 HN61         4.1180    -1.4630    -7.9760 hn         1 112       0.494500
     50 HN62         2.3950    -1.6140    -8.0820 hn         1 112       0.494500
     51 H6           5.0220     0.2150    -3.9280 h5         1 112       0.016100
@<TRIPOS>BOND
     1     1     2 1   
     2     1    36 1   
     3     1    37 1   
     4     2     3 2   
     5     2     4 1   
     6     4     6 1   
     7     4    38 1   
     8     4    39 1   
     9     5     6 1   
    10     5     7 1   
    11     5     8 1   
    12     5    12 1   
    13     9    10 1   
    14     9    11 1   
    15     9    12 1   
    16     9    16 1   
    17    13    14 1   
    18    13    15 1   
    19    13    16 1   
    20    13    17 1   
    21    17    18 1   
    22    18    19 1   
    23    18    40 1   
    24    18    41 1   
    25    19    20 1   
    26    19    21 1   
    27    19    42 1   
    28    20    25 1   
    29    21    22 1   
    30    21    23 1   
    31    21    43 1   
    32    22    44 1   
    33    23    24 1   
    34    23    25 1   
    35    23    45 1   
    36    24    46 1   
    37    25    26 1   
    38    25    47 1   
    39    26    27 1   
    40    26    35 1   
    41    27    28 2   
    42    27    48 1   
    43    28    29 1   
    44    29    30 ar  
    45    29    35 ar  
    46    30    31 1   
    47    30    32 ar  
    48    31    49 1   
    49    31    50 1   
    50    32    33 ar  
    51    33    34 ar  
    52    33    51 1   
    53    34    35 ar  
@<TRIPOS>SUBSTRUCTURE
     1 112         1 TEMP              0 ****  ****    0 ROOT
