@<TRIPOS>MOLECULE
113
   36    38     1     0     0
SMALL
abcg2


@<TRIPOS>ATOM
      1 C1           1.7810    -0.0860    -3.1500 ca         1 113       0.112100
      2 C2           2.2940    -0.0330    -1.8780 ca         1 113      -0.170000
      3 C3           1.4150    -0.0640    -0.7950 ca         1 113       0.089100
      4 C4           0.0350    -0.1190    -0.9500 ca         1 113      -0.156600
      5 C5          -0.4880    -0.0700    -2.2650 ca         1 113      -0.158600
      6 C6           0.3780    -0.1090    -3.3480 ca         1 113       0.096100
      7 O8           2.0100    -0.0510     0.4240 os         1 113      -0.221200
      8 C9           1.2690    -0.0980     1.5320 cc         1 113       0.148900
      9 C10         -0.0640    -0.2670     1.5020 cd         1 113      -0.323400
     10 C11         -0.7700    -0.4280     0.2390 c          1 113       0.614900
     11 C12          2.0540     0.0020     2.7920 c6         1 113      -0.066200
     12 C13          1.1190     0.2460     3.9700 c6         1 113       0.174300
     13 O14          0.0110    -0.6420     3.8810 os         1 113      -0.487000
     14 C15         -0.8260    -0.4150     2.7880 c6         1 113       0.446500
     15 O16         -0.0460    -0.1400    -4.6120 oh         1 113      -0.661100
     16 O17          2.6080    -0.0940    -4.2030 oh         1 113      -0.553100
     17 C18         -1.9380     0.2290    -2.6010 c          1 113       0.729600
     18 O19         -2.6140     0.9080    -1.8350 o          1 113      -0.671500
     19 O20         -1.6010     0.7350     2.9380 os         1 113      -0.452000
     20 C22         -2.5920     0.6400     3.9390 c3         1 113       0.152900
     21 C26          1.7990     0.0130     5.3000 c3         1 113      -0.086100
     22 O30         -2.3110    -0.1800    -3.7490 o          1 113      -0.671500
     23 O31         -1.9120    -0.8610     0.1960 o          1 113      -0.511100
     24 H2           3.3640     0.0030    -1.7160 ha         1 113       0.122000
     25 H121         2.7760     0.8190     2.7170 hc         1 113       0.065700
     26 H122         2.6310    -0.9190     2.9330 hc         1 113       0.065700
     27 H13          0.7660     1.2830     3.9250 h1         1 113       0.054700
     28 H15         -1.4720    -1.3020     2.7390 h2         1 113       0.086700
     29 H16         -1.0710    -0.2250    -4.5050 ho         1 113       0.559000
     30 H17          2.0950    -0.1230    -5.0210 ho         1 113       0.485000
     31 H221        -3.2060     1.5370     3.8760 h1         1 113       0.024700
     32 H222        -3.2370    -0.2330     3.7880 h1         1 113       0.024700
     33 H223        -2.1670     0.5830     4.9450 h1         1 113       0.024700
     34 H261         1.1140     0.2050     6.1270 hc         1 113       0.038033
     35 H262         2.1650    -1.0120     5.3830 hc         1 113       0.038033
     36 H263         2.6500     0.6850     5.4070 hc         1 113       0.038033
@<TRIPOS>BOND
     1     1     2 ar  
     2     1     6 ar  
     3     1    16 1   
     4     2     3 ar  
     5     2    24 1   
     6     3     4 ar  
     7     3     7 1   
     8     4     5 ar  
     9     4    10 1   
    10     5     6 ar  
    11     5    17 1   
    12     6    15 1   
    13     7     8 1   
    14     8     9 2   
    15     8    11 1   
    16     9    10 1   
    17     9    14 1   
    18    10    23 2   
    19    11    12 1   
    20    11    25 1   
    21    11    26 1   
    22    12    13 1   
    23    12    21 1   
    24    12    27 1   
    25    13    14 1   
    26    14    19 1   
    27    14    28 1   
    28    15    29 1   
    29    16    30 1   
    30    17    18 1   
    31    17    22 1   
    32    19    20 1   
    33    20    31 1   
    34    20    32 1   
    35    20    33 1   
    36    21    34 1   
    37    21    35 1   
    38    21    36 1   
@<TRIPOS>SUBSTRUCTURE
     1 113         1 TEMP              0 ****  ****    0 ROOT
