@<TRIPOS>MOLECULE
113
   36    38     1     0     0
SMALL
No Charge or Current Charge


@<TRIPOS>ATOM
      1 C1           1.7760     0.0670    -3.1980 ca         1 113       0.112100
      2 C2           2.3220    -0.0830    -1.9200 ca         1 113      -0.170000
      3 C3           1.4840    -0.2740    -0.8110 ca         1 113       0.089100
      4 C4           0.0860    -0.3360    -0.9830 ca         1 113      -0.156600
      5 C5          -0.4830    -0.1170    -2.2770 ca         1 113      -0.158600
      6 C6           0.3820     0.0510    -3.3810 ca         1 113       0.096100
      7 O8           2.1120    -0.4670     0.4090 os         1 113      -0.221200
      8 C9           1.3490    -0.2220     1.5370 cc         1 113       0.148900
      9 C10         -0.0080    -0.4650     1.4910 cd         1 113      -0.323400
     10 C11         -0.7210    -0.6580     0.2320 c          1 113       0.614900
     11 C12          2.0920    -0.0270     2.8310 c6         1 113      -0.066200
     12 C13          1.0970     0.2520     3.9780 c6         1 113       0.174300
     13 O14         -0.0130    -0.6650     3.9010 os         1 113      -0.487000
     14 C15         -0.8550    -0.5110     2.7370 c6         1 113       0.446500
     15 O16         -0.1280     0.1860    -4.6470 oh         1 113      -0.661100
     16 O17          2.5900     0.2350    -4.2790 oh         1 113      -0.553100
     17 C18         -1.9740    -0.0030    -2.5060 c          1 113       0.729600
     18 O19         -2.5890     0.8360    -1.8640 o          1 113      -0.671500
     19 O20         -1.5690     0.7310     2.8400 os         1 113      -0.452000
     20 C22         -2.5510     0.8110     3.8850 c3         1 113       0.152900
     21 C26          1.7380     0.0790     5.3760 c3         1 113      -0.086100
     22 O30         -2.4260    -0.5560    -3.5020 o          1 113      -0.671500
     23 O31         -1.8710    -1.0780     0.1850 o          1 113      -0.511100
     24 H2           3.4000    -0.0650    -1.7870 ha         1 113       0.122000
     25 H121         2.8060     0.8040     2.7490 hc         1 113       0.065700
     26 H122         2.6820    -0.9240     3.0590 hc         1 113       0.065700
     27 H13          0.7180     1.2820     3.8940 h1         1 113       0.054700
     28 H15         -1.5740    -1.3460     2.6980 h2         1 113       0.086700
     29 H16         -1.0900    -0.0700    -4.5820 ho         1 113       0.559000
     30 H17          1.9830     0.3210    -5.0500 ho         1 113       0.485000
     31 H221        -3.0550     1.7860     3.8590 h1         1 113       0.024700
     32 H222        -3.3110     0.0290     3.7650 h1         1 113       0.024700
     33 H223        -2.0850     0.6950     4.8720 h1         1 113       0.024700
     34 H261         1.0120     0.2960     6.1690 hc         1 113       0.038033
     35 H262         2.1060    -0.9430     5.5250 hc         1 113       0.038033
     36 H263         2.5840     0.7640     5.5060 hc         1 113       0.038033
@<TRIPOS>BOND
     1     1     2 ar  
     2     1     6 ar  
     3     1    16 1   
     4     2     3 ar  
     5     2    24 1   
     6     3     4 ar  
     7     3     7 1   
     8     4     5 ar  
     9     4    10 1   
    10     5     6 ar  
    11     5    17 1   
    12     6    15 1   
    13     7     8 1   
    14     8     9 2   
    15     8    11 1   
    16     9    10 1   
    17     9    14 1   
    18    10    23 2   
    19    11    12 1   
    20    11    25 1   
    21    11    26 1   
    22    12    13 1   
    23    12    21 1   
    24    12    27 1   
    25    13    14 1   
    26    14    19 1   
    27    14    28 1   
    28    15    29 1   
    29    16    30 1   
    30    17    18 1   
    31    17    22 1   
    32    19    20 1   
    33    20    31 1   
    34    20    32 1   
    35    20    33 1   
    36    21    34 1   
    37    21    35 1   
    38    21    36 1   
@<TRIPOS>SUBSTRUCTURE
     1 113         1 TEMP              0 ****  ****    0 ROOT
