@<TRIPOS>MOLECULE
115
   55    57     1     0     0
SMALL
abcg2


@<TRIPOS>ATOM
      1 C10         -3.6140     0.2750     0.4640 ca         1 115      -0.082800
      2 C15         -3.5000     1.6720     0.2900 ca         1 115      -0.040200
      3 C14         -4.5500     2.5290     0.6300 ca         1 115      -0.123000
      4 C13         -5.7100     1.9690     1.1300 ca         1 115      -0.107000
      5 C12         -5.8430     0.5820     1.2880 ca         1 115      -0.146000
      6 C11         -4.8060    -0.2670     0.9560 ca         1 115      -0.067000
      7 C8          -2.3830    -0.3050     0.0240 cc         1 115      -0.108400
      8 C9          -1.5830     0.7380    -0.3850 cd         1 115       0.025900
      9 N1          -2.2580     1.9300    -0.2340 na         1 115      -0.081700
     10 C83         -2.0580    -3.9280     1.0190 ca         1 115      -0.153500
     11 C82         -2.3080    -2.5630     1.0690 ca         1 115      -0.079500
     12 C81         -2.0860    -1.7400    -0.0360 ca         1 115      -0.010800
     13 C86         -1.6000    -2.3310    -1.2050 ca         1 115      -0.079500
     14 C85         -1.3340    -3.6900    -1.2720 ca         1 115      -0.153500
     15 C84         -1.5710    -4.4670    -0.1540 ca         1 115       0.159000
     16 F1          -1.3260    -5.7880    -0.2140 f          1 115      -0.188000
     17 O1B          7.2620    -0.6620     0.4320 o          1 115      -0.730500
     18 O1A          7.7800     1.3690     1.1870 o          1 115      -0.730500
     19 O3           4.9440     0.7420    -1.3230 oh         1 115      -0.670000
     20 C2           5.4790     0.7890     1.0450 c3         1 115      -0.240400
     21 C3           4.5820     0.2250    -0.0410 c3         1 115       0.177300
     22 C4           3.1040     0.4730     0.2570 c3         1 115      -0.153400
     23 C5           2.1540    -0.1410    -0.7790 c3         1 115       0.206500
     24 C6           0.7440    -0.0180    -0.3020 c2         1 115      -0.160200
     25 C7          -0.2150     0.6910    -0.8940 cf         1 115      -0.208000
     26 C91         -1.6760     3.2480    -0.4790 c3         1 115       0.087300
     27 C92         -2.4250     4.0050    -1.5690 c3         1 115      -0.104600
     28 C93         -1.5250     4.0530     0.8060 c3         1 115      -0.104600
     29 O5           2.2860     0.4460    -2.0480 oh         1 115      -0.693000
     30 H1          -4.4820     3.6000     0.5080 ha         1 115       0.110000
     31 H2          -6.5340     2.6170     1.4000 ha         1 115       0.102000
     32 H3          -6.7680     0.1760     1.6750 ha         1 115       0.103000
     33 H4          -4.9160    -1.3380     1.0760 ha         1 115       0.114000
     34 H5          -2.2350    -4.5560     1.8830 ha         1 115       0.126500
     35 H6          -2.6740    -2.1340     1.9940 ha         1 115       0.121500
     36 H7          -1.4310    -1.7210    -2.0820 ha         1 115       0.121500
     37 H8          -0.9590    -4.1360    -2.1830 ha         1 115       0.126500
     38 H10          5.0070     1.7020    -1.2500 ho         1 115       0.434000
     39 H11          5.1630     0.3670     2.0060 hc         1 115       0.023700
     40 H12          5.3220     1.8700     1.1280 hc         1 115       0.023700
     41 H13          4.7480    -0.8540    -0.1140 h1         1 115       0.089700
     42 H14          2.8770     0.0410     1.2350 hc         1 115       0.045200
     43 H15          2.9090     1.5480     0.3380 hc         1 115       0.045200
     44 H16          2.3820    -1.2210    -0.8250 h1         1 115       0.045700
     45 H17          0.5210    -0.5560     0.6140 ha         1 115       0.177000
     46 H18          0.0060     1.2430    -1.8020 ha         1 115       0.200000
     47 H19         -0.6690     3.0570    -0.8510 h1         1 115       0.077700
     48 H20         -3.4250     4.3040    -1.2590 hc         1 115       0.044700
     49 H21         -1.8770     4.9130    -1.8230 hc         1 115       0.044700
     50 H22         -2.5150     3.4020    -2.4730 hc         1 115       0.044700
     51 H23         -0.9630     4.9630     0.5970 hc         1 115       0.044700
     52 H24         -2.4830     4.3510     1.2290 hc         1 115       0.044700
     53 H25         -0.9800     3.4850     1.5600 hc         1 115       0.044700
     54 H26          3.2360     0.5750    -2.1920 ho         1 115       0.484000
     55 C1           6.9750     0.4750     0.8590 c          1 115       0.723000
@<TRIPOS>BOND
     1     1     2 ar  
     2     1     6 ar  
     3     1     7 1   
     4     2     3 ar  
     5     2     9 1   
     6     3     4 ar  
     7     3    30 1   
     8     4     5 ar  
     9     4    31 1   
    10     5     6 ar  
    11     5    32 1   
    12     6    33 1   
    13     7     8 2   
    14     7    12 1   
    15     8     9 1   
    16     8    25 1   
    17     9    26 1   
    18    10    11 ar  
    19    10    15 ar  
    20    10    34 1   
    21    11    12 ar  
    22    11    35 1   
    23    12    13 ar  
    24    13    14 ar  
    25    13    36 1   
    26    14    15 ar  
    27    14    37 1   
    28    15    16 1   
    29    17    55 1   
    30    18    55 1   
    31    19    21 1   
    32    19    38 1   
    33    20    21 1   
    34    20    39 1   
    35    20    40 1   
    36    20    55 1   
    37    21    22 1   
    38    21    41 1   
    39    22    23 1   
    40    22    42 1   
    41    22    43 1   
    42    23    24 1   
    43    23    29 1   
    44    23    44 1   
    45    24    25 2   
    46    24    45 1   
    47    25    46 1   
    48    26    27 1   
    49    26    28 1   
    50    26    47 1   
    51    27    48 1   
    52    27    49 1   
    53    27    50 1   
    54    28    51 1   
    55    28    52 1   
    56    28    53 1   
    57    29    54 1   
@<TRIPOS>SUBSTRUCTURE
     1 115         1 TEMP              0 ****  ****    0 ROOT
