@<TRIPOS>MOLECULE
115
   55    57     1     0     0
SMALL
No Charge or Current Charge


@<TRIPOS>ATOM
      1 C10         -3.7210     0.2880     0.2880 ca         1 115      -0.082800
      2 C15         -3.4680     1.6340     0.3070 ca         1 115      -0.040200
      3 C14         -4.4930     2.5430     0.6370 ca         1 115      -0.123000
      4 C13         -5.7740     2.0360     0.9440 ca         1 115      -0.107000
      5 C12         -6.0190     0.6450     0.9140 ca         1 115      -0.146000
      6 C11         -4.9840    -0.2490     0.5780 ca         1 115      -0.067000
      7 C8          -2.5050    -0.3610    -0.0950 cc         1 115      -0.108400
      8 C9          -1.5320     0.6160    -0.2920 cd         1 115       0.025900
      9 N1          -2.1340     1.8770    -0.0420 na         1 115      -0.081700
     10 C83         -2.3810    -4.0540     0.7010 ca         1 115      -0.153500
     11 C82         -2.6310    -2.6740     0.8110 ca         1 115      -0.079500
     12 C81         -2.2390    -1.7950    -0.2180 ca         1 115      -0.010800
     13 C86         -1.6000    -2.3140    -1.3630 ca         1 115      -0.079500
     14 C85         -1.3500    -3.6940    -1.4730 ca         1 115      -0.153500
     15 C84         -1.7400    -4.5590    -0.4400 ca         1 115       0.159000
     16 F1          -1.5000    -5.8840    -0.5460 f          1 115      -0.188000
     17 O1B          7.3840     0.9090     1.3790 o          1 115      -0.730500
     18 O1A          7.3780     1.4720    -0.7030 o          1 115      -0.730500
     19 O3           4.8430     0.2000    -1.3720 oh         1 115      -0.670000
     20 C2           5.3410     1.6730     0.4610 c3         1 115      -0.240400
     21 C3           4.5440     0.4360     0.0090 c3         1 115       0.177300
     22 C4           3.0150     0.6220     0.1770 c3         1 115      -0.153400
     23 C5           2.1760    -0.6240    -0.1850 c3         1 115       0.206500
     24 C6           0.6980    -0.4140     0.0630 c2         1 115      -0.160200
     25 C7          -0.1250     0.4060    -0.6340 cf         1 115      -0.208000
     26 C91         -1.4640     3.2010    -0.0510 c3         1 115       0.087300
     27 C92         -1.9960     4.1410    -1.1560 c3         1 115      -0.104600
     28 C93         -1.4140     3.8660     1.3440 c3         1 115      -0.104600
     29 O5           2.4010    -0.9240    -1.5560 oh         1 115      -0.693000
     30 H1          -4.3250     3.6140     0.6570 ha         1 115       0.110000
     31 H2          -6.5780     2.7210     1.2010 ha         1 115       0.102000
     32 H3          -7.0100     0.2630     1.1460 ha         1 115       0.103000
     33 H4          -5.1630    -1.3210     0.5400 ha         1 115       0.114000
     34 H5          -2.6800    -4.7290     1.4990 ha         1 115       0.126500
     35 H6          -3.1190    -2.2850     1.7010 ha         1 115       0.121500
     36 H7          -1.2990    -1.6470    -2.1680 ha         1 115       0.121500
     37 H8          -0.8550    -4.0910    -2.3560 ha         1 115       0.126500
     38 H10          5.7500     0.5690    -1.5080 ho         1 115       0.434000
     39 H11          5.0450     1.8820     1.4960 hc         1 115       0.023700
     40 H12          5.0780     2.4780    -0.2380 hc         1 115       0.023700
     41 H13          4.8590    -0.4220     0.6230 h1         1 115       0.089700
     42 H14          2.8070     0.8790     1.2230 hc         1 115       0.045200
     43 H15          2.6810     1.4770    -0.4240 hc         1 115       0.045200
     44 H16          2.5210    -1.4610     0.4400 h1         1 115       0.045700
     45 H17          0.3010    -0.9900     0.9000 ha         1 115       0.177000
     46 H18          0.2790     1.0190    -1.4420 ha         1 115       0.200000
     47 H19         -0.4160     3.0070    -0.3130 h1         1 115       0.077700
     48 H20         -3.0320     4.4410    -0.9730 hc         1 115       0.044700
     49 H21         -1.3850     5.0490    -1.2110 hc         1 115       0.044700
     50 H22         -1.9510     3.6440    -2.1320 hc         1 115       0.044700
     51 H23         -0.7870     4.7660     1.3140 hc         1 115       0.044700
     52 H24         -2.4080     4.1600     1.6940 hc         1 115       0.044700
     53 H25         -0.9810     3.1780     2.0790 hc         1 115       0.044700
     54 H26          3.3180    -0.5710    -1.7130 ho         1 115       0.484000
     55 C1           6.8370     1.3610     0.3860 c          1 115       0.723000
@<TRIPOS>BOND
     1     1     2 ar  
     2     1     6 ar  
     3     1     7 1   
     4     2     3 ar  
     5     2     9 1   
     6     3     4 ar  
     7     3    30 1   
     8     4     5 ar  
     9     4    31 1   
    10     5     6 ar  
    11     5    32 1   
    12     6    33 1   
    13     7     8 2   
    14     7    12 1   
    15     8     9 1   
    16     8    25 1   
    17     9    26 1   
    18    10    11 ar  
    19    10    15 ar  
    20    10    34 1   
    21    11    12 ar  
    22    11    35 1   
    23    12    13 ar  
    24    13    14 ar  
    25    13    36 1   
    26    14    15 ar  
    27    14    37 1   
    28    15    16 1   
    29    17    55 1   
    30    18    55 1   
    31    19    21 1   
    32    19    38 1   
    33    20    21 1   
    34    20    39 1   
    35    20    40 1   
    36    20    55 1   
    37    21    22 1   
    38    21    41 1   
    39    22    23 1   
    40    22    42 1   
    41    22    43 1   
    42    23    24 1   
    43    23    29 1   
    44    23    44 1   
    45    24    25 2   
    46    24    45 1   
    47    25    46 1   
    48    26    27 1   
    49    26    28 1   
    50    26    47 1   
    51    27    48 1   
    52    27    49 1   
    53    27    50 1   
    54    28    51 1   
    55    28    52 1   
    56    28    53 1   
    57    29    54 1   
@<TRIPOS>SUBSTRUCTURE
     1 115         1 TEMP              0 ****  ****    0 ROOT
