@<TRIPOS>MOLECULE
116
   68    69     1     0     0
SMALL
No Charge or Current Charge


@<TRIPOS>ATOM
      1 C14          2.6340     2.2450     4.7770 c3         1 116       0.143900
      2 O13          1.4780     1.8250     4.0370 os         1 116      -0.447000
      3 C13          1.1820     0.4230     4.1410 c3         1 116       0.207900
      4 C17         -2.8620     1.7700     5.2920 c3         1 116      -0.082600
      5 C16         -1.7810    -0.3640     6.1920 c3         1 116      -0.082600
      6 C8           0.1250    -0.3600     1.9470 cp         1 116       0.015000
      7 C10         -1.0380    -0.6440     1.1780 ca         1 116      -0.107300
      8 C9          -2.3100    -0.4190     1.7690 ca         1 116       0.371300
      9 N1          -2.4440     0.0260     3.0370 nb         1 116      -0.691000
     10 C12         -1.3490     0.3110     3.7740 ca         1 116       0.376300
     11 C11         -0.0390     0.1210     3.2730 ca         1 116      -0.127300
     12 C83          3.5120     0.4030     0.3560 ca         1 116      -0.153500
     13 C82          2.2220     0.5680     0.8890 ca         1 116      -0.067500
     14 C81          1.4920    -0.5420     1.3750 cp         1 116      -0.065000
     15 C86          2.0950    -1.8230     1.3280 ca         1 116      -0.067500
     16 C85          3.3850    -1.9890     0.7940 ca         1 116      -0.153500
     17 C84          4.0880    -0.8760     0.3090 ca         1 116       0.176000
     18 F1           5.3280    -1.0360    -0.2030 f          1 116      -0.179000
     19 O1B          2.3740     1.0840    -7.2190 o          1 116      -0.737000
     20 O1A          0.5290     0.9040    -8.3140 o          1 116      -0.737000
     21 O3          -0.8230    -0.5240    -5.7090 oh         1 116      -0.640000
     22 C2           0.3830     1.5620    -6.0340 c3         1 116      -0.232400
     23 C3           0.1510     0.3350    -5.1240 c3         1 116       0.189300
     24 C4          -0.3410     0.7290    -3.7080 c3         1 116      -0.148400
     25 C5          -0.5460    -0.4640    -2.7410 c3         1 116       0.167300
     26 C6          -0.8190    -0.0020    -1.2900 c3         1 116      -0.111400
     27 C92         -4.1310    -2.1350     1.2890 c3         1 116      -0.082100
     28 C93         -4.7580     0.3410     1.3640 c3         1 116      -0.082100
     29 O5          -1.6520    -1.2520    -3.1970 oh         1 116      -0.655000
     30 H141         2.7960     3.3230     4.6520 h1         1 116       0.027033
     31 H142         2.5080     2.0400     5.8480 h1         1 116       0.027033
     32 H143         3.5330     1.7220     4.4240 h1         1 116       0.027033
     33 H131         2.0420    -0.1750     3.8140 h1         1 116       0.030700
     34 H132         0.9890     0.1420     5.1840 h1         1 116       0.030700
     35 H15         -0.7940     1.4230     5.5500 hc         1 116       0.045700
     36 H171        -2.7540     2.6010     4.5850 hc         1 116       0.037033
     37 H172        -3.7970     1.2430     5.0670 hc         1 116       0.037033
     38 H173        -2.9480     2.1930     6.3000 hc         1 116       0.037033
     39 H161        -0.8870    -0.9980     6.1730 hc         1 116       0.037033
     40 H162        -1.9170     0.0000     7.2180 hc         1 116       0.037033
     41 H163        -2.6460    -0.9870     5.9310 hc         1 116       0.037033
     42 H83          4.0640     1.2610    -0.0190 ha         1 116       0.133500
     43 H82          1.7780     1.5610     0.9280 ha         1 116       0.124500
     44 H86          1.5520    -2.6870     1.7060 ha         1 116       0.124500
     45 H85          3.8400    -2.9760     0.7580 ha         1 116       0.133500
     46 HO3         -1.2540    -0.9630    -4.9340 ho         1 116       0.420000
     47 H21         -0.6010     1.9770    -6.2850 hc         1 116       0.016700
     48 H22          1.0040     2.2430    -5.4380 hc         1 116       0.016700
     49 H3           1.1070    -0.1990    -5.0090 h1         1 116       0.079700
     50 H41         -1.2730     1.3040    -3.7870 hc         1 116       0.036700
     51 H42          0.4010     1.4050    -3.2670 hc         1 116       0.036700
     52 H5           0.3760    -1.0650    -2.7410 h1         1 116       0.083700
     53 H61         -1.7410     0.5900    -1.2550 hc         1 116       0.043200
     54 H62         -0.0090     0.6710    -0.9830 hc         1 116       0.043200
     55 H71         -0.0070    -1.7830    -0.3700 hc         1 116       0.058200
     56 H72         -1.7230    -1.8350    -0.5270 hc         1 116       0.058200
     57 H91         -3.4890    -0.5870    -0.0430 hc         1 116       0.057700
     58 H921        -5.0390    -2.3470     0.7100 hc         1 116       0.036367
     59 H922        -3.3640    -2.8620     0.9960 hc         1 116       0.036367
     60 H923        -4.3570    -2.2890     2.3510 hc         1 116       0.036367
     61 H931        -5.0820     0.2630     2.4090 hc         1 116       0.036367
     62 H932        -4.4020     1.3630     1.1880 hc         1 116       0.036367
     63 H933        -5.6350     0.1750     0.7270 hc         1 116       0.036367
     64 HO5         -2.4590    -0.8770    -2.7830 ho         1 116       0.425000
     65 C7          -0.9020    -1.1590    -0.2650 c3         1 116      -0.028100
     66 C15         -1.6390     0.8180     5.2050 c3         1 116      -0.105000
     67 C91         -3.6440    -0.6890     1.0360 c3         1 116      -0.111000
     68 C1           1.1560     1.1470    -7.2930 c          1 116       0.728000
@<TRIPOS>BOND
     1     1     2 1   
     2     1    30 1   
     3     1    31 1   
     4     1    32 1   
     5     2     3 1   
     6     3    11 1   
     7     3    33 1   
     8     3    34 1   
     9     4    36 1   
    10     4    37 1   
    11     4    38 1   
    12     4    66 1   
    13     5    39 1   
    14     5    40 1   
    15     5    41 1   
    16     5    66 1   
    17     6     7 ar  
    18     6    11 ar  
    19     6    14 1   
    20     7     8 ar  
    21     7    65 1   
    22     8     9 ar  
    23     8    67 1   
    24     9    10 ar  
    25    10    11 ar  
    26    10    66 1   
    27    12    13 ar  
    28    12    17 ar  
    29    12    42 1   
    30    13    14 ar  
    31    13    43 1   
    32    14    15 ar  
    33    15    16 ar  
    34    15    44 1   
    35    16    17 ar  
    36    16    45 1   
    37    17    18 1   
    38    19    68 1   
    39    20    68 1   
    40    21    23 1   
    41    21    46 1   
    42    22    23 1   
    43    22    47 1   
    44    22    48 1   
    45    22    68 1   
    46    23    24 1   
    47    23    49 1   
    48    24    25 1   
    49    24    50 1   
    50    24    51 1   
    51    25    26 1   
    52    25    29 1   
    53    25    52 1   
    54    26    53 1   
    55    26    54 1   
    56    26    65 1   
    57    27    58 1   
    58    27    59 1   
    59    27    60 1   
    60    27    67 1   
    61    28    61 1   
    62    28    62 1   
    63    28    63 1   
    64    28    67 1   
    65    29    64 1   
    66    35    66 1   
    67    55    65 1   
    68    56    65 1   
    69    57    67 1   
@<TRIPOS>SUBSTRUCTURE
     1 116         1 TEMP              0 ****  ****    0 ROOT
