@<TRIPOS>MOLECULE
116
   68    69     1     0     0
SMALL
bcc


@<TRIPOS>ATOM
      1 C14          2.5640     2.1050     4.8240 c3         1 116       0.120700
      2 O13          1.4330     1.7090     4.0900 os         1 116      -0.400600
      3 C13          1.2070     0.3210     4.1740 c3         1 116       0.184700
      4 C17         -2.0590     2.1770     4.9520 c3         1 116      -0.082600
      5 C16         -2.7280    -0.1000     5.8090 c3         1 116      -0.082600
      6 C8           0.2150    -0.4830     2.0060 cp         1 116       0.015000
      7 C10         -0.8860    -0.7960     1.2030 ca         1 116      -0.172600
      8 C9          -2.1560    -0.5870     1.7530 ca         1 116       0.436600
      9 N1          -2.3220    -0.1360     2.9870 nb         1 116      -0.691000
     10 C12         -1.2860     0.1440     3.7630 ca         1 116       0.441600
     11 C11          0.0270    -0.0240     3.3140 ca         1 116      -0.192600
     12 C83          3.5600     0.4280     0.5130 ca         1 116      -0.171500
     13 C82          2.2710     0.5210     1.0180 ca         1 116      -0.085500
     14 C81          1.5940    -0.6090     1.4650 cp         1 116      -0.065000
     15 C86          2.2330    -1.8450     1.4040 ca         1 116      -0.085500
     16 C85          3.5230    -1.9580     0.9050 ca         1 116      -0.171500
     17 C84          4.1620    -0.8140     0.4670 ca         1 116       0.140900
     18 F1           5.4110    -0.9120    -0.0180 f          1 116      -0.143900
     19 O1B          1.7840     1.3070    -7.1540 o          1 116      -0.842300
     20 O1A         -0.0930     1.7940    -8.2470 o          1 116      -0.842300
     21 O3          -0.1950    -0.7650    -5.5840 oh         1 116      -0.577800
     22 C2          -0.1830     1.6400    -5.8690 c3         1 116      -0.232400
     23 C3           0.1140     0.4630    -4.9500 c3         1 116       0.166100
     24 C4          -0.5870     0.6330    -3.6040 c3         1 116      -0.148400
     25 C5          -0.5110    -0.5670    -2.6590 c3         1 116       0.144100
     26 C6          -0.7500    -0.1310    -1.2160 c3         1 116      -0.111400
     27 C92         -4.0300    -2.2010     1.5150 c3         1 116      -0.082100
     28 C93         -4.4400     0.2560     1.1190 c3         1 116      -0.082100
     29 O5          -1.4060    -1.5990    -3.0410 oh         1 116      -0.592800
     30 H141         2.6710     3.1840     4.7230 h1         1 116       0.027033
     31 H142         2.4710     1.8630     5.8890 h1         1 116       0.027033
     32 H143         3.4800     1.6310     4.4510 h1         1 116       0.027033
     33 H131         2.0940    -0.2330     3.8430 h1         1 116       0.030700
     34 H132         1.0330     0.0190     5.2150 h1         1 116       0.030700
     35 H15         -0.7550     0.7000     5.7630 hc         1 116       0.045700
     36 H171        -1.2520     2.7700     4.5200 hc         1 116       0.037033
     37 H172        -2.9280     2.2530     4.2960 hc         1 116       0.037033
     38 H173        -2.3220     2.6170     5.9150 hc         1 116       0.037033
     39 H161        -2.4010    -1.1240     5.9950 hc         1 116       0.037033
     40 H162        -2.9820     0.3470     6.7710 hc         1 116       0.037033
     41 H163        -3.6300    -0.1400     5.1990 hc         1 116       0.037033
     42 H83          4.0840     1.3080     0.1640 ha         1 116       0.151500
     43 H82          1.7890     1.4890     1.0630 ha         1 116       0.142500
     44 H86          1.7220    -2.7340     1.7500 ha         1 116       0.142500
     45 H85          4.0190    -2.9180     0.8580 ha         1 116       0.151500
     46 HO3         -1.1350    -0.9360    -5.4780 ho         1 116       0.381000
     47 H21         -1.2630     1.7160    -6.0310 hc         1 116       0.016700
     48 H22          0.1180     2.5650    -5.3610 hc         1 116       0.016700
     49 H3           1.1930     0.4320    -4.7710 h1         1 116       0.079700
     50 H41         -1.6440     0.8900    -3.7570 hc         1 116       0.036700
     51 H42         -0.1430     1.5050    -3.1140 hc         1 116       0.036700
     52 H5           0.4880    -1.0130    -2.7210 h1         1 116       0.083700
     53 H61         -1.7100     0.3980    -1.1500 hc         1 116       0.043200
     54 H62          0.0140     0.6050    -0.9500 hc         1 116       0.043200
     55 H71          0.2420    -1.8040    -0.3100 hc         1 116       0.058200
     56 H72         -1.4760    -2.0210    -0.4470 hc         1 116       0.058200
     57 H91         -3.2120    -1.0160    -0.0570 hc         1 116       0.057700
     58 H921        -4.9360    -2.4570     0.9650 hc         1 116       0.036367
     59 H922        -3.3260    -3.0280     1.4010 hc         1 116       0.036367
     60 H923        -4.2870    -2.1220     2.5730 hc         1 116       0.036367
     61 H931        -4.7010     0.4450     2.1590 hc         1 116       0.036367
     62 H932        -4.0400     1.1800     0.7000 hc         1 116       0.036367
     63 H933        -5.3530     0.0100     0.5740 hc         1 116       0.036367
     64 HO5         -2.3040    -1.2640    -2.9390 ho         1 116       0.386000
     65 C7          -0.7100    -1.2820    -0.2110 c3         1 116      -0.028100
     66 C15         -1.6370     0.7160     5.1200 c3         1 116      -0.105000
     67 C91         -3.4360    -0.8880     1.0030 c3         1 116      -0.111000
     68 C1           0.5650     1.5660    -7.2110 c          1 116       0.938600
@<TRIPOS>BOND
     1     1     2 1   
     2     1    30 1   
     3     1    31 1   
     4     1    32 1   
     5     2     3 1   
     6     3    11 1   
     7     3    33 1   
     8     3    34 1   
     9     4    36 1   
    10     4    37 1   
    11     4    38 1   
    12     4    66 1   
    13     5    39 1   
    14     5    40 1   
    15     5    41 1   
    16     5    66 1   
    17     6     7 ar  
    18     6    11 ar  
    19     6    14 1   
    20     7     8 ar  
    21     7    65 1   
    22     8     9 ar  
    23     8    67 1   
    24     9    10 ar  
    25    10    11 ar  
    26    10    66 1   
    27    12    13 ar  
    28    12    17 ar  
    29    12    42 1   
    30    13    14 ar  
    31    13    43 1   
    32    14    15 ar  
    33    15    16 ar  
    34    15    44 1   
    35    16    17 ar  
    36    16    45 1   
    37    17    18 1   
    38    19    68 1   
    39    20    68 1   
    40    21    23 1   
    41    21    46 1   
    42    22    23 1   
    43    22    47 1   
    44    22    48 1   
    45    22    68 1   
    46    23    24 1   
    47    23    49 1   
    48    24    25 1   
    49    24    50 1   
    50    24    51 1   
    51    25    26 1   
    52    25    29 1   
    53    25    52 1   
    54    26    53 1   
    55    26    54 1   
    56    26    65 1   
    57    27    58 1   
    58    27    59 1   
    59    27    60 1   
    60    27    67 1   
    61    28    61 1   
    62    28    62 1   
    63    28    63 1   
    64    28    67 1   
    65    29    64 1   
    66    35    66 1   
    67    55    65 1   
    68    56    65 1   
    69    57    67 1   
@<TRIPOS>SUBSTRUCTURE
     1 116         1 TEMP              0 ****  ****    0 ROOT
