@<TRIPOS>MOLECULE
117
   75    78     1     0     0
SMALL
No Charge or Current Charge


@<TRIPOS>ATOM
      1 C17         -1.3300     1.4010    -3.4510 ca         1 117      -0.101000
      2 C12         -1.4040     0.1950    -2.7220 ca         1 117      -0.015000
      3 C13         -2.5160    -0.6500    -2.9240 ca         1 117      -0.101000
      4 C14         -3.5130    -0.3130    -3.8570 ca         1 117      -0.113500
      5 C15         -3.4160     0.8800    -4.5890 ca         1 117      -0.115000
      6 C16         -2.3250     1.7400    -4.3830 ca         1 117      -0.113500
      7 C83         -4.0760     0.2380     0.7350 ca         1 117      -0.153500
      8 C82         -2.7830     0.3570     0.1940 ca         1 117      -0.065500
      9 C81         -1.9530    -0.7760     0.0820 ca         1 117      -0.040000
     10 C86         -2.4280    -2.0300     0.5160 ca         1 117      -0.065500
     11 C85         -3.7210    -2.1480     1.0570 ca         1 117      -0.153500
     12 C84         -4.5400    -1.0140     1.1650 ca         1 117       0.180000
     13 F1          -5.7820    -1.1290     1.6840 f          1 117      -0.178000
     14 C8          -0.6090    -0.6500    -0.4840 cc         1 117      -0.105000
     15 C19          1.3090     0.2100    -5.7010 ca         1 117      -0.014000
     16 C20          0.2280     0.0340    -6.5870 ca         1 117      -0.146000
     17 C21          0.4010     0.1900    -7.9730 ca         1 117      -0.089500
     18 C22          1.6630     0.5260    -8.4870 ca         1 117      -0.144000
     19 C23          2.7480     0.7070    -7.6160 ca         1 117      -0.089500
     20 C24          2.5750     0.5510    -6.2290 ca         1 117      -0.146000
     21 O1B          1.1500     1.2040     9.6520 o          1 117      -0.735000
     22 O1A         -0.8680     1.4940     8.9610 o          1 117      -0.735000
     23 O3           1.8150    -0.4020     6.8900 oh         1 117      -0.638000
     24 C2           0.8530     1.7800     7.3640 c3         1 117      -0.235400
     25 C3           0.8000     0.5120     6.4830 c3         1 117       0.187300
     26 C4           1.0040     0.8260     4.9780 c3         1 117      -0.148400
     27 C5           0.9170    -0.4080     4.0450 c3         1 117       0.172300
     28 C6           0.8920    -0.0150     2.5520 c3         1 117      -0.138400
     29 N1           0.5970    -0.8180     0.1790 na         1 117       0.046000
     30 C10         -0.3560    -0.1410    -1.7280 cd         1 117      -0.085000
     31 C11          1.0720    -0.1440    -1.9040 cd         1 117      -0.230600
     32 C18          1.8360     0.1280    -3.1800 c          1 117       0.654700
     33 N2           1.0460     0.0380    -4.3150 ns         1 117      -0.145000
     34 O18          3.0350     0.3570    -3.2340 o          1 117      -0.594100
     35 C9           1.6630    -0.4960    -0.6850 cc         1 117      -0.074300
     36 C91          3.1290    -0.6310    -0.2580 c3         1 117       0.003600
     37 C93          3.8960    -1.7560    -0.9920 c3         1 117      -0.088100
     38 C92          3.8900     0.7150    -0.1920 c3         1 117      -0.088100
     39 O5           2.0480    -1.2550     4.2820 oh         1 117      -0.654000
     40 H17         -0.5030     2.0870    -3.2830 ha         1 117       0.120500
     41 H13         -2.5980    -1.5860    -2.3780 ha         1 117       0.120500
     42 H14         -4.3580    -0.9790    -4.0120 ha         1 117       0.111000
     43 H15         -4.1870     1.1420    -5.3110 ha         1 117       0.108000
     44 H16         -2.2530     2.6710    -4.9410 ha         1 117       0.111000
     45 H83         -4.7160     1.1120     0.8200 ha         1 117       0.134000
     46 H82         -2.4240     1.3280    -0.1390 ha         1 117       0.124000
     47 H86         -1.7980    -2.9120     0.4240 ha         1 117       0.124000
     48 H85         -4.0880    -3.1160     1.3900 ha         1 117       0.134000
     49 H20         -0.7560    -0.2260    -6.2000 ha         1 117       0.128000
     50 H21         -0.4420     0.0510    -8.6460 ha         1 117       0.108000
     51 H22          1.7990     0.6480    -9.5600 ha         1 117       0.108000
     52 H23          3.7260     0.9680    -8.0140 ha         1 117       0.108000
     53 H24          3.4360     0.7010    -5.5860 ha         1 117       0.128000
     54 HO3          2.0350    -0.9050     6.0670 ho         1 117       0.418000
     55 H21A         1.8950     2.1240     7.3840 hc         1 117       0.017700
     56 H22A         0.1700     2.4890     6.8820 hc         1 117       0.017700
     57 H3          -0.1930     0.0510     6.5970 h1         1 117       0.083700
     58 H41          1.9670     1.3320     4.8320 hc         1 117       0.038200
     59 H42          0.2310     1.5410     4.6730 hc         1 117       0.038200
     60 H5          -0.0160    -0.9450     4.2740 h1         1 117       0.083700
     61 H61          1.8130     0.5210     2.2930 hc         1 117       0.055200
     62 H62          0.0650     0.6860     2.3870 hc         1 117       0.055200
     63 H71         -0.2150    -1.7470     1.8880 h1         1 117       0.071200
     64 H72          1.5180    -1.9410     1.7170 h1         1 117       0.071200
     65 HN2          0.0810    -0.1880    -4.1140 hn         1 117       0.158000
     66 H91          3.1480    -0.9630     0.7830 hc         1 117       0.047700
     67 H931         3.3330    -2.6950    -0.9390 hc         1 117       0.042533
     68 H932         4.0750    -1.5280    -2.0460 hc         1 117       0.042533
     69 H933         4.8710    -1.9230    -0.5190 hc         1 117       0.042533
     70 H921         3.3140     1.4500     0.3820 hc         1 117       0.042533
     71 H922         4.8560     0.5810     0.3110 hc         1 117       0.042533
     72 H923         4.0910     1.1390    -1.1780 hc         1 117       0.042533
     73 HO5          2.8040    -0.8670     3.7890 ho         1 117       0.428000
     74 C7           0.7010    -1.2190     1.6000 c3         1 117       0.061600
     75 C1           0.3400     1.4650     8.7750 c          1 117       0.727000
@<TRIPOS>BOND
     1     1     2 ar  
     2     1     6 ar  
     3     1    40 1   
     4     2     3 ar  
     5     2    30 1   
     6     3     4 ar  
     7     3    41 1   
     8     4     5 ar  
     9     4    42 1   
    10     5     6 ar  
    11     5    43 1   
    12     6    44 1   
    13     7     8 ar  
    14     7    12 ar  
    15     7    45 1   
    16     8     9 ar  
    17     8    46 1   
    18     9    10 ar  
    19     9    14 1   
    20    10    11 ar  
    21    10    47 1   
    22    11    12 ar  
    23    11    48 1   
    24    12    13 1   
    25    14    29 1   
    26    14    30 2   
    27    15    16 ar  
    28    15    20 ar  
    29    15    33 1   
    30    16    17 ar  
    31    16    49 1   
    32    17    18 ar  
    33    17    50 1   
    34    18    19 ar  
    35    18    51 1   
    36    19    20 ar  
    37    19    52 1   
    38    20    53 1   
    39    21    75 1   
    40    22    75 1   
    41    23    25 1   
    42    23    54 1   
    43    24    25 1   
    44    24    55 1   
    45    24    56 1   
    46    24    75 1   
    47    25    26 1   
    48    25    57 1   
    49    26    27 1   
    50    26    58 1   
    51    26    59 1   
    52    27    28 1   
    53    27    39 1   
    54    27    60 1   
    55    28    61 1   
    56    28    62 1   
    57    28    74 1   
    58    29    35 1   
    59    29    74 1   
    60    30    31 1   
    61    31    32 1   
    62    31    35 2   
    63    32    33 1   
    64    32    34 2   
    65    33    65 1   
    66    35    36 1   
    67    36    37 1   
    68    36    38 1   
    69    36    66 1   
    70    37    67 1   
    71    37    68 1   
    72    37    69 1   
    73    38    70 1   
    74    38    71 1   
    75    38    72 1   
    76    39    73 1   
    77    63    74 1   
    78    64    74 1   
@<TRIPOS>SUBSTRUCTURE
     1 117         1 TEMP              0 ****  ****    0 ROOT
