@<TRIPOS>MOLECULE
117
   75    78     1     0     0
SMALL
abcg2


@<TRIPOS>ATOM
      1 C17         -1.3470     1.4660    -3.3510 ca         1 117      -0.101000
      2 C12         -1.4460     0.2240    -2.7200 ca         1 117      -0.015000
      3 C13         -2.4970    -0.6210    -3.0760 ca         1 117      -0.101000
      4 C14         -3.4220    -0.2360    -4.0370 ca         1 117      -0.113500
      5 C15         -3.3100     0.9990    -4.6610 ca         1 117      -0.115000
      6 C16         -2.2670     1.8480    -4.3150 ca         1 117      -0.113500
      7 C83         -4.1150     0.0920     0.9450 ca         1 117      -0.153500
      8 C82         -2.8550     0.2440     0.3860 ca         1 117      -0.065500
      9 C81         -2.0240    -0.8550     0.1750 ca         1 117      -0.040000
     10 C86         -2.4860    -2.1210     0.5330 ca         1 117      -0.065500
     11 C85         -3.7390    -2.2910     1.1020 ca         1 117      -0.153500
     12 C84         -4.5320    -1.1770     1.2960 ca         1 117       0.180000
     13 F1          -5.7480    -1.3330     1.8420 f          1 117      -0.178000
     14 C8          -0.7140    -0.6700    -0.4650 cc         1 117      -0.105000
     15 C19          1.4360     0.1050    -5.5410 ca         1 117      -0.014000
     16 C20          0.4210    -0.1360    -6.4700 ca         1 117      -0.146000
     17 C21          0.5960     0.1850    -7.8050 ca         1 117      -0.089500
     18 C22          1.7830     0.7640    -8.2370 ca         1 117      -0.144000
     19 C23          2.7910     1.0050    -7.3140 ca         1 117      -0.089500
     20 C24          2.6330     0.6780    -5.9730 ca         1 117      -0.146000
     21 O1B          1.5170     2.2820     9.3420 o          1 117      -0.735000
     22 O1A         -0.4820     1.5030     8.7470 o          1 117      -0.735000
     23 O3           1.3140    -0.5070     6.8870 oh         1 117      -0.638000
     24 C2           1.1040     1.9040     7.0270 c3         1 117      -0.235400
     25 C3           0.7390     0.6310     6.2740 c3         1 117       0.187300
     26 C4           1.0960     0.7580     4.7950 c3         1 117      -0.148400
     27 C5           0.8630    -0.4860     3.9400 c3         1 117       0.172300
     28 C6           0.7700    -0.1060     2.4630 c3         1 117      -0.138400
     29 N1           0.4820    -0.9350     0.1540 na         1 117       0.046000
     30 C10         -0.4480    -0.1910    -1.7230 cd         1 117      -0.085000
     31 C11          0.9730    -0.1540    -1.8570 cd         1 117      -0.230600
     32 C18          1.6940     0.2690    -3.0750 c          1 117       0.654700
     33 N2           1.1860    -0.2710    -4.2170 ns         1 117      -0.145000
     34 O18          2.6430     1.0390    -3.0690 o          1 117      -0.594100
     35 C9           1.5230    -0.6130    -0.6710 cc         1 117      -0.074300
     36 C91          2.9590    -0.8400    -0.2830 c3         1 117       0.003600
     37 C93          3.7100    -1.6850    -1.3140 c3         1 117      -0.088100
     38 C92          3.7030     0.4650     0.0140 c3         1 117      -0.088100
     39 O5           1.8480    -1.4820     4.1480 oh         1 117      -0.654000
     40 H17         -0.5460     2.1440    -3.0800 ha         1 117       0.120500
     41 H13         -2.5830    -1.5950    -2.6110 ha         1 117       0.120500
     42 H14         -4.2280    -0.9080    -4.3030 ha         1 117       0.111000
     43 H15         -4.0290     1.2960    -5.4130 ha         1 117       0.108000
     44 H16         -2.1720     2.8150    -4.7930 ha         1 117       0.111000
     45 H83         -4.7580     0.9480     1.1070 ha         1 117       0.134000
     46 H82         -2.5130     1.2330     0.1110 ha         1 117       0.124000
     47 H86         -1.8690    -2.9930     0.3550 ha         1 117       0.124000
     48 H85         -4.0950    -3.2750     1.3770 ha         1 117       0.134000
     49 H20         -0.5160    -0.5690    -6.1370 ha         1 117       0.128000
     50 H21         -0.2030    -0.0110    -8.5080 ha         1 117       0.108000
     51 H22          1.9210     1.0190    -9.2790 ha         1 117       0.108000
     52 H23          3.7240     1.4480    -7.6380 ha         1 117       0.108000
     53 H24          3.4390     0.8600    -5.2820 ha         1 117       0.128000
     54 HO3          2.2580    -0.5070     6.7000 ho         1 117       0.418000
     55 H21A         2.1800     2.0850     6.9360 hc         1 117       0.017700
     56 H22A         0.6100     2.7520     6.5380 hc         1 117       0.017700
     57 H3          -0.3420     0.4820     6.3540 h1         1 117       0.083700
     58 H41          2.1440     1.0700     4.6840 hc         1 117       0.038200
     59 H42          0.5050     1.5840     4.3880 hc         1 117       0.038200
     60 H5          -0.0850    -0.9510     4.2360 h1         1 117       0.083700
     61 H61          1.6670     0.4510     2.1730 hc         1 117       0.055200
     62 H62         -0.0730     0.5760     2.3240 hc         1 117       0.055200
     63 H71         -0.3090    -1.8560     1.8310 h1         1 117       0.071200
     64 H72          1.4140    -2.0200     1.6690 h1         1 117       0.071200
     65 HN2          0.4000    -0.8910    -4.0990 hn         1 117       0.158000
     66 H91          2.9640    -1.4240     0.6400 hc         1 117       0.047700
     67 H931         3.1770    -2.6100    -1.5360 hc         1 117       0.042533
     68 H932         3.8670    -1.1510    -2.2490 hc         1 117       0.042533
     69 H933         4.6930    -1.9510    -0.9230 hc         1 117       0.042533
     70 H921         3.2160     1.0350     0.8070 hc         1 117       0.042533
     71 H922         4.7210     0.2490     0.3420 hc         1 117       0.042533
     72 H923         3.7530     1.0960    -0.8700 hc         1 117       0.042533
     73 HO5          2.7070    -1.1030     3.9300 ho         1 117       0.428000
     74 C7           0.5940    -1.3150     1.5540 c3         1 117       0.061600
     75 C1           0.6810     1.8860     8.5050 c          1 117       0.727000
@<TRIPOS>BOND
     1     1     2 ar  
     2     1     6 ar  
     3     1    40 1   
     4     2     3 ar  
     5     2    30 1   
     6     3     4 ar  
     7     3    41 1   
     8     4     5 ar  
     9     4    42 1   
    10     5     6 ar  
    11     5    43 1   
    12     6    44 1   
    13     7     8 ar  
    14     7    12 ar  
    15     7    45 1   
    16     8     9 ar  
    17     8    46 1   
    18     9    10 ar  
    19     9    14 1   
    20    10    11 ar  
    21    10    47 1   
    22    11    12 ar  
    23    11    48 1   
    24    12    13 1   
    25    14    29 1   
    26    14    30 2   
    27    15    16 ar  
    28    15    20 ar  
    29    15    33 1   
    30    16    17 ar  
    31    16    49 1   
    32    17    18 ar  
    33    17    50 1   
    34    18    19 ar  
    35    18    51 1   
    36    19    20 ar  
    37    19    52 1   
    38    20    53 1   
    39    21    75 1   
    40    22    75 1   
    41    23    25 1   
    42    23    54 1   
    43    24    25 1   
    44    24    55 1   
    45    24    56 1   
    46    24    75 1   
    47    25    26 1   
    48    25    57 1   
    49    26    27 1   
    50    26    58 1   
    51    26    59 1   
    52    27    28 1   
    53    27    39 1   
    54    27    60 1   
    55    28    61 1   
    56    28    62 1   
    57    28    74 1   
    58    29    35 1   
    59    29    74 1   
    60    30    31 1   
    61    31    32 1   
    62    31    35 2   
    63    32    33 1   
    64    32    34 2   
    65    33    65 1   
    66    35    36 1   
    67    36    37 1   
    68    36    38 1   
    69    36    66 1   
    70    37    67 1   
    71    37    68 1   
    72    37    69 1   
    73    38    70 1   
    74    38    71 1   
    75    38    72 1   
    76    39    73 1   
    77    63    74 1   
    78    64    74 1   
@<TRIPOS>SUBSTRUCTURE
     1 117         1 TEMP              0 ****  ****    0 ROOT
