@<TRIPOS>MOLECULE
119
   45    48     1     0     0
SMALL
bcc


@<TRIPOS>ATOM
      1 P           -0.0200     0.0110     0.0100 p5         1 119       1.234000
      2 C1A          1.2260     1.2580    -0.3310 ca         1 119      -0.398000
      3 C2A          2.4190     1.2280     0.3950 ca         1 119      -0.053500
      4 C3A          3.3850     2.1930     0.1650 ca         1 119      -0.127500
      5 C4A          3.1680     3.1800    -0.7890 ca         1 119      -0.052000
      6 C5A          1.9850     3.2040    -1.5150 ca         1 119      -0.127500
      7 C6A          1.0100     2.2440    -1.2900 ca         1 119      -0.053500
      8 C1C         -1.2480    -0.0190    -1.2980 ca         1 119      -0.398000
      9 C6C         -1.2390    -1.0210    -2.2640 ca         1 119      -0.053500
     10 C5C         -2.1860    -1.0010    -3.2780 ca         1 119      -0.127500
     11 C4C         -3.1330     0.0120    -3.3270 ca         1 119      -0.052000
     12 C3C         -3.1430     1.0100    -2.3600 ca         1 119      -0.127500
     13 C2C         -2.2040     0.9980    -1.3420 ca         1 119      -0.053500
     14 C1D          0.8120    -1.5770     0.1170 ca         1 119      -0.398000
     15 C6D          0.4570    -2.5070     1.0900 ca         1 119      -0.053500
     16 C5D          1.0920    -3.7400     1.1220 ca         1 119      -0.127500
     17 C4D          2.0740    -4.0420     0.1900 ca         1 119      -0.052000
     18 C3D          2.4290    -3.1120    -0.7800 ca         1 119      -0.127500
     19 C2D          1.8040    -1.8780    -0.8190 ca         1 119      -0.053500
     20 C6B         -0.3240     1.2580     2.4780 ca         1 119      -0.053500
     21 C5B         -0.9870     1.4860     3.6750 ca         1 119      -0.127500
     22 C4B         -2.1830     0.8370     3.9450 ca         1 119      -0.052000
     23 C3B         -2.7280    -0.0420     3.0150 ca         1 119      -0.127500
     24 C2B         -2.0760    -0.2740     1.8160 ca         1 119      -0.053500
     25 C1B         -0.8680     0.3740     1.5500 ca         1 119      -0.398000
     26 H2A          2.6010     0.4560     1.1330 ha         1 119       0.143000
     27 H3A          4.3080     2.1710     0.7270 ha         1 119       0.156000
     28 H4A          3.9270     3.9290    -0.9710 ha         1 119       0.156000
     29 H5A          1.8210     3.9670    -2.2630 ha         1 119       0.156000
     30 H6A          0.0990     2.2650    -1.8730 ha         1 119       0.143000
     31 H6C         -0.5100    -1.8190    -2.2350 ha         1 119       0.143000
     32 H5C         -2.1830    -1.7820    -4.0260 ha         1 119       0.156000
     33 H4C         -3.8710     0.0220    -4.1180 ha         1 119       0.156000
     34 H3C         -3.8830     1.7970    -2.3950 ha         1 119       0.156000
     35 H2C         -2.2260     1.7760    -0.5890 ha         1 119       0.143000
     36 H6D         -0.3010    -2.2850     1.8300 ha         1 119       0.143000
     37 H5D          0.8190    -4.4610     1.8800 ha         1 119       0.156000
     38 H4D          2.5670    -5.0050     0.2200 ha         1 119       0.156000
     39 H3D          3.1970    -3.3450    -1.5050 ha         1 119       0.156000
     40 H2D          2.0950    -1.1580    -1.5740 ha         1 119       0.143000
     41 H5B         -0.5660     2.1760     4.3940 ha         1 119       0.156000
     42 H4B         -2.6960     1.0180     4.8800 ha         1 119       0.156000
     43 H3B         -3.6630    -0.5430     3.2230 ha         1 119       0.156000
     44 H2B         -2.5140    -0.9540     1.0950 ha         1 119       0.143000
     45 H6B          0.6040     1.7770     2.2790 ha         1 119       0.143000
@<TRIPOS>BOND
     1     1     2 1   
     2     1     8 1   
     3     1    14 1   
     4     1    25 1   
     5     2     3 ar  
     6     2     7 ar  
     7     3     4 ar  
     8     3    26 1   
     9     4     5 ar  
    10     4    27 1   
    11     5     6 ar  
    12     5    28 1   
    13     6     7 ar  
    14     6    29 1   
    15     7    30 1   
    16     8     9 ar  
    17     8    13 ar  
    18     9    10 ar  
    19     9    31 1   
    20    10    11 ar  
    21    10    32 1   
    22    11    12 ar  
    23    11    33 1   
    24    12    13 ar  
    25    12    34 1   
    26    13    35 1   
    27    14    15 ar  
    28    14    19 ar  
    29    15    16 ar  
    30    15    36 1   
    31    16    17 ar  
    32    16    37 1   
    33    17    18 ar  
    34    17    38 1   
    35    18    19 ar  
    36    18    39 1   
    37    19    40 1   
    38    20    21 ar  
    39    20    25 ar  
    40    20    45 1   
    41    21    22 ar  
    42    21    41 1   
    43    22    23 ar  
    44    22    42 1   
    45    23    24 ar  
    46    23    43 1   
    47    24    25 ar  
    48    24    44 1   
@<TRIPOS>SUBSTRUCTURE
     1 119         1 TEMP              0 ****  ****    0 ROOT
