@<TRIPOS>MOLECULE
119
   45    48     1     0     0
SMALL
No Charge or Current Charge


@<TRIPOS>ATOM
      1 P            0.0030    -0.0010     0.0170 p5         1 119       1.234000
      2 C1A          1.2650     1.2940    -0.3200 ca         1 119      -0.398000
      3 C2A          2.5430     1.2040     0.2770 ca         1 119      -0.035500
      4 C3A          3.5130     2.1900     0.0250 ca         1 119      -0.109500
      5 C4A          3.2170     3.2710    -0.8220 ca         1 119      -0.034000
      6 C5A          1.9480     3.3670    -1.4190 ca         1 119      -0.109500
      7 C6A          0.9740     2.3840    -1.1710 ca         1 119      -0.035500
      8 C1C         -1.2710    -0.0240    -1.3620 ca         1 119      -0.398000
      9 C6C         -1.1990    -0.9750    -2.4200 ca         1 119      -0.035500
     10 C5C         -2.1590    -0.9820    -3.4450 ca         1 119      -0.109500
     11 C4C         -3.2080    -0.0490    -3.4410 ca         1 119      -0.034000
     12 C3C         -3.2980     0.8960    -2.4060 ca         1 119      -0.109500
     13 C2C         -2.3440     0.9120    -1.3760 ca         1 119      -0.035500
     14 C1D          0.8350    -1.6390     0.1220 ca         1 119      -0.398000
     15 C6D          0.4350    -2.5890     1.0870 ca         1 119      -0.035500
     16 C5D          1.0740    -3.8400     1.1530 ca         1 119      -0.109500
     17 C4D          2.1120    -4.1520     0.2600 ca         1 119      -0.034000
     18 C3D          2.5140    -3.2100    -0.7020 ca         1 119      -0.109500
     19 C2D          1.8810    -1.9570    -0.7730 ca         1 119      -0.035500
     20 C6B         -0.2720     1.2070     2.5780 ca         1 119      -0.035500
     21 C5B         -0.9470     1.4850     3.7820 ca         1 119      -0.109500
     22 C4B         -2.2180     0.9370     4.0230 ca         1 119      -0.034000
     23 C3B         -2.8180     0.1090     3.0590 ca         1 119      -0.109500
     24 C2B         -2.1480    -0.1720     1.8530 ca         1 119      -0.035500
     25 C1B         -0.8670     0.3740     1.6020 ca         1 119      -0.398000
     26 H2A          2.7910     0.3730     0.9380 ha         1 119       0.125000
     27 H3A          4.4980     2.1190     0.4860 ha         1 119       0.138000
     28 H4A          3.9690     4.0340    -1.0160 ha         1 119       0.138000
     29 H5A          1.7220     4.2070    -2.0760 ha         1 119       0.138000
     30 H6A         -0.0020     2.4770    -1.6460 ha         1 119       0.125000
     31 H6C         -0.3970    -1.7110    -2.4460 ha         1 119       0.125000
     32 H5C         -2.0900    -1.7140    -4.2460 ha         1 119       0.138000
     33 H4C         -3.9500    -0.0590    -4.2370 ha         1 119       0.138000
     34 H3C         -4.1120     1.6180    -2.4030 ha         1 119       0.138000
     35 H2C         -2.4350     1.6550    -0.5840 ha         1 119       0.125000
     36 H6D         -0.3670    -2.3690     1.7900 ha         1 119       0.125000
     37 H5D          0.7620    -4.5690     1.8980 ha         1 119       0.138000
     38 H4D          2.6040    -5.1210     0.3130 ha         1 119       0.138000
     39 H3D          3.3190    -3.4510    -1.3930 ha         1 119       0.138000
     40 H2D          2.2050    -1.2400    -1.5270 ha         1 119       0.125000
     41 H5B         -0.4830     2.1270     4.5280 ha         1 119       0.138000
     42 H4B         -2.7380     1.1540     4.9540 ha         1 119       0.138000
     43 H3B         -3.8020    -0.3150     3.2450 ha         1 119       0.138000
     44 H2B         -2.6280    -0.8170     1.1170 ha         1 119       0.125000
     45 H6B          0.7120     1.6440     2.4120 ha         1 119       0.125000
@<TRIPOS>BOND
     1     1     2 1   
     2     1     8 1   
     3     1    14 1   
     4     1    25 1   
     5     2     3 ar  
     6     2     7 ar  
     7     3     4 ar  
     8     3    26 1   
     9     4     5 ar  
    10     4    27 1   
    11     5     6 ar  
    12     5    28 1   
    13     6     7 ar  
    14     6    29 1   
    15     7    30 1   
    16     8     9 ar  
    17     8    13 ar  
    18     9    10 ar  
    19     9    31 1   
    20    10    11 ar  
    21    10    32 1   
    22    11    12 ar  
    23    11    33 1   
    24    12    13 ar  
    25    12    34 1   
    26    13    35 1   
    27    14    15 ar  
    28    14    19 ar  
    29    15    16 ar  
    30    15    36 1   
    31    16    17 ar  
    32    16    37 1   
    33    17    18 ar  
    34    17    38 1   
    35    18    19 ar  
    36    18    39 1   
    37    19    40 1   
    38    20    21 ar  
    39    20    25 ar  
    40    20    45 1   
    41    21    22 ar  
    42    21    41 1   
    43    22    23 ar  
    44    22    42 1   
    45    23    24 ar  
    46    23    43 1   
    47    24    25 ar  
    48    24    44 1   
@<TRIPOS>SUBSTRUCTURE
     1 119         1 TEMP              0 ****  ****    0 ROOT
