@<TRIPOS>MOLECULE
11A
   34    33     1     0     0
SMALL
No Charge or Current Charge


@<TRIPOS>ATOM
      1 CAA          7.5180     0.4830    -0.0670 c3         1 11A      -0.087100
      2 CAD          6.2600    -0.4010     0.0370 c3         1 11A      -0.075400
      3 CAE          4.9460     0.4040    -0.0580 c3         1 11A      -0.076400
      4 CAF          3.6850    -0.4820     0.0460 c3         1 11A      -0.074400
      5 CAG          2.3700     0.3230    -0.0490 c3         1 11A      -0.075400
      6 CAH          1.1100    -0.5630     0.0550 c3         1 11A      -0.075400
      7 CAI         -0.2050     0.2420    -0.0390 c3         1 11A      -0.075400
      8 CAJ         -1.4660    -0.6440     0.0650 c3         1 11A      -0.079400
      9 CAK         -2.7810     0.1610    -0.0300 c3         1 11A      -0.053400
     10 CAL         -4.0470    -0.7250     0.0740 c3         1 11A      -0.204400
     11 CAM         -5.3140     0.1440    -0.0270 c          1 11A       0.717000
     12 OAC         -5.7750     0.3650    -1.1370 o          1 11A      -0.744000
     13 OAB         -5.7750     0.6150     1.0020 o          1 11A      -0.744000
     14 HAA1         7.5400     1.2230     0.7420 hc         1 11A       0.027700
     15 HAA2         8.4230    -0.1310     0.0060 hc         1 11A       0.027700
     16 HAA3         7.5400     1.0160    -1.0250 hc         1 11A       0.027700
     17 HAD1         6.2850    -1.1510    -0.7630 hc         1 11A       0.034700
     18 HAD2         6.2850    -0.9460     0.9890 hc         1 11A       0.034700
     19 HAE1         4.9250     1.1550     0.7420 hc         1 11A       0.035700
     20 HAE2         4.9250     0.9490    -1.0100 hc         1 11A       0.035700
     21 HAF1         3.7060    -1.2330    -0.7540 hc         1 11A       0.034700
     22 HAF2         3.7050    -1.0270     0.9980 hc         1 11A       0.034700
     23 HAG1         2.3500     1.0740     0.7510 hc         1 11A       0.034700
     24 HAG2         2.3500     0.8680    -1.0010 hc         1 11A       0.034700
     25 HAH1         1.1300    -1.3140    -0.7450 hc         1 11A       0.031700
     26 HAH2         1.1300    -1.1080     1.0070 hc         1 11A       0.031700
     27 HAI1        -0.2250     0.9930     0.7610 hc         1 11A       0.033700
     28 HAI2        -0.2250     0.7870    -0.9910 hc         1 11A       0.033700
     29 HAJ1        -1.4440    -1.3940    -0.7360 hc         1 11A       0.023700
     30 HAJ2        -1.4440    -1.1890     1.0160 hc         1 11A       0.023700
     31 HAK1        -2.8010     0.9130     0.7700 hc         1 11A       0.037700
     32 HAK2        -2.8010     0.7080    -0.9810 hc         1 11A       0.037700
     33 HAL1        -3.9930    -1.4250    -0.7690 hc         1 11A       0.014200
     34 HAL2        -3.9930    -1.2120     1.0560 hc         1 11A       0.014200
@<TRIPOS>BOND
     1     1     2 1   
     2     1    14 1   
     3     1    15 1   
     4     1    16 1   
     5     2     3 1   
     6     2    17 1   
     7     2    18 1   
     8     3     4 1   
     9     3    19 1   
    10     3    20 1   
    11     4     5 1   
    12     4    21 1   
    13     4    22 1   
    14     5     6 1   
    15     5    23 1   
    16     5    24 1   
    17     6     7 1   
    18     6    25 1   
    19     6    26 1   
    20     7     8 1   
    21     7    27 1   
    22     7    28 1   
    23     8     9 1   
    24     8    29 1   
    25     8    30 1   
    26     9    10 1   
    27     9    31 1   
    28     9    32 1   
    29    10    11 1   
    30    10    33 1   
    31    10    34 1   
    32    11    12 1   
    33    11    13 1   
@<TRIPOS>SUBSTRUCTURE
     1 11A         1 TEMP              0 ****  ****    0 ROOT
