@<TRIPOS>MOLECULE
11A
   34    33     1     0     0
SMALL
abcg2


@<TRIPOS>ATOM
      1 CAA          7.4510     0.4640    -0.0140 c3         1 11A      -0.087100
      2 CAD          6.2110    -0.4200     0.0100 c3         1 11A      -0.075400
      3 CAE          4.9160     0.3830    -0.0110 c3         1 11A      -0.076400
      4 CAF          3.6640    -0.4850     0.0140 c3         1 11A      -0.074400
      5 CAG          2.3730     0.3240     0.0060 c3         1 11A      -0.075400
      6 CAH          1.1180    -0.5410     0.0190 c3         1 11A      -0.075400
      7 CAI         -0.1720     0.2690     0.0090 c3         1 11A      -0.075400
      8 CAJ         -1.4280    -0.5940     0.0120 c3         1 11A      -0.079400
      9 CAK         -2.7180     0.2180    -0.0000 c3         1 11A      -0.053400
     10 CAL         -3.9620    -0.6550    -0.0140 c3         1 11A      -0.204400
     11 CAM         -5.3130     0.0820    -0.0430 c          1 11A       0.717000
     12 OAC         -6.3300    -0.6440    -0.0720 o          1 11A      -0.744000
     13 OAB         -5.3000     1.3280    -0.0380 o          1 11A      -0.744000
     14 HAA1         7.4860     1.1150     0.8620 hc         1 11A       0.027700
     15 HAA2         8.3680    -0.1270    -0.0220 hc         1 11A       0.027700
     16 HAA3         7.4620     1.1020    -0.9000 hc         1 11A       0.027700
     17 HAD1         6.2280    -1.1010    -0.8480 hc         1 11A       0.034700
     18 HAD2         6.2280    -1.0560     0.9010 hc         1 11A       0.034700
     19 HAE1         4.9010     1.0660     0.8460 hc         1 11A       0.035700
     20 HAE2         4.8990     1.0190    -0.9030 hc         1 11A       0.035700
     21 HAF1         3.6740    -1.1600    -0.8490 hc         1 11A       0.034700
     22 HAF2         3.6850    -1.1290     0.9010 hc         1 11A       0.034700
     23 HAG1         2.3600     0.9960     0.8710 hc         1 11A       0.034700
     24 HAG2         2.3570     0.9700    -0.8790 hc         1 11A       0.034700
     25 HAH1         1.1320    -1.2100    -0.8490 hc         1 11A       0.031700
     26 HAH2         1.1330    -1.1900     0.9020 hc         1 11A       0.031700
     27 HAI1        -0.1880     0.9370     0.8790 hc         1 11A       0.033700
     28 HAI2        -0.1830     0.9210    -0.8720 hc         1 11A       0.033700
     29 HAJ1        -1.4080    -1.2600    -0.8590 hc         1 11A       0.023700
     30 HAJ2        -1.4150    -1.2490     0.8910 hc         1 11A       0.023700
     31 HAK1        -2.7370     0.8780     0.8730 hc         1 11A       0.037700
     32 HAK2        -2.7180     0.8760    -0.8740 hc         1 11A       0.037700
     33 HAL1        -3.9250    -1.3320    -0.8760 hc         1 11A       0.014200
     34 HAL2        -3.9540    -1.3180     0.8610 hc         1 11A       0.014200
@<TRIPOS>BOND
     1     1     2 1   
     2     1    14 1   
     3     1    15 1   
     4     1    16 1   
     5     2     3 1   
     6     2    17 1   
     7     2    18 1   
     8     3     4 1   
     9     3    19 1   
    10     3    20 1   
    11     4     5 1   
    12     4    21 1   
    13     4    22 1   
    14     5     6 1   
    15     5    23 1   
    16     5    24 1   
    17     6     7 1   
    18     6    25 1   
    19     6    26 1   
    20     7     8 1   
    21     7    27 1   
    22     7    28 1   
    23     8     9 1   
    24     8    29 1   
    25     8    30 1   
    26     9    10 1   
    27     9    31 1   
    28     9    32 1   
    29    10    11 1   
    30    10    33 1   
    31    10    34 1   
    32    11    12 1   
    33    11    13 1   
@<TRIPOS>SUBSTRUCTURE
     1 11A         1 TEMP              0 ****  ****    0 ROOT
