@<TRIPOS>MOLECULE
11B
   64    65     1     0     0
SMALL
abcg2


@<TRIPOS>ATOM
      1 C39         39.2130    13.3960    65.6880 ca         1 11B      -0.090500
      2 C40         40.3510    13.0380    66.4080 ca         1 11B      -0.124000
      3 C41         40.2530    12.6820    67.7480 ca         1 11B      -0.135000
      4 C42         39.0050    12.6830    68.3680 ca         1 11B      -0.124000
      5 C43         37.8710    13.0360    67.6490 ca         1 11B      -0.090500
      6 C38         37.9630    13.3980    66.3030 ca         1 11B      -0.070300
      7 C35         36.7010    13.7930    65.5830 c3         1 11B       0.228900
      8 O34         36.9800    13.9580    64.1920 os         1 11B      -0.451100
      9 C32         35.9310    14.3010    63.3930 c          1 11B       0.633100
     10 O33         34.7870    14.4250    63.8160 o          1 11B      -0.615000
     11 N31         36.3490    14.4790    62.1350 ns         1 11B      -0.458900
     12 C25         35.4510    14.6930    61.0120 c3         1 11B      -0.218300
     13 C26         35.8560    15.9410    60.2180 c3         1 11B      -0.058400
     14 C27         35.8410    17.2370    61.0330 c3         1 11B      -0.066400
     15 C28         34.4500    17.6630    61.5030 c3         1 11B      -0.078400
     16 C29         34.4370    18.9590    62.3190 c3         1 11B      -0.073400
     17 C30         34.8350    20.2020    61.5240 c3         1 11B      -0.085100
     18 P24         35.3680    13.1660    59.9770 p5         1 11B       1.424400
     19 O36         34.5450    13.4700    58.7580 o          1 11B      -0.833000
     20 O37         35.0090    11.9930    60.8430 o          1 11B      -0.833000
     21 O23         36.9250    13.0280    59.4850 os         1 11B      -0.618400
     22 C1          37.8030    11.9800    59.8930 c3         1 11B       0.134600
     23 C2          38.7760    12.4010    61.0380 c          1 11B       0.711000
     24 O14         39.3560    11.4520    61.6100 o          1 11B      -0.729000
     25 O13         38.9160    13.6270    61.2830 o          1 11B      -0.729000
     26 C3          38.6180    11.5370    58.7000 ca         1 11B       0.017700
     27 C8          38.8440    10.1820    58.4760 ca         1 11B      -0.127000
     28 C4          39.1700    12.4790    57.8320 ca         1 11B      -0.086000
     29 C5          39.9400    12.0590    56.7540 ca         1 11B      -0.116000
     30 C6          40.1910    10.7090    56.5470 ca         1 11B      -0.196000
     31 C7          39.6450     9.7580    57.4120 ca         1 11B       0.257000
     32 N9          39.8660     8.3940    57.1530 nu         1 11B      -0.975200
     33 C10         40.2300     7.4370    58.0870 c2         1 11B       0.794100
     34 N12         40.4070     7.6100    59.3500 n2         1 11B      -0.897100
     35 N11         40.3430     6.1720    57.5470 nv         1 11B      -1.043200
     36 H39         39.2990    13.6690    64.6460 ha         1 11B       0.135000
     37 H40         41.3160    13.0380    65.9160 ha         1 11B       0.098500
     38 H41         41.1390    12.4040    68.3050 ha         1 11B       0.088000
     39 H42         38.9160    12.4050    69.4100 ha         1 11B       0.098500
     40 H43         36.9020    13.0300    68.1350 ha         1 11B       0.135000
     41 H351        35.9320    13.0290    65.7170 h1         1 11B       0.042200
     42 H352        36.3080    14.7290    65.9880 h1         1 11B       0.042200
     43 HN31        37.3220    14.2520    61.9110 hn         1 11B       0.388500
     44 H25         34.4490    14.8230    61.4200 h1         1 11B       0.063700
     45 H261        36.8590    15.7810    59.8130 hc         1 11B       0.053700
     46 H262        35.1820    16.0350    59.3640 hc         1 11B       0.053700
     47 H271        36.4950    17.1260    61.9030 hc         1 11B       0.022700
     48 H272        36.2780    18.0280    60.4180 hc         1 11B       0.022700
     49 H281        33.7960    17.7790    60.6300 hc         1 11B       0.045700
     50 H282        34.0140    16.8660    62.1110 hc         1 11B       0.045700
     51 H291        33.4330    19.1050    62.7290 hc         1 11B       0.026200
     52 H292        35.1060    18.8450    63.1790 hc         1 11B       0.026200
     53 H301        34.7540    21.1030    62.1370 hc         1 11B       0.019033
     54 H302        35.8630    20.1400    61.1620 hc         1 11B       0.019033
     55 H303        34.1840    20.3300    60.6540 hc         1 11B       0.019033
     56 H1          37.2180    11.1420    60.2680 h1         1 11B       0.066700
     57 H8          38.3720     9.4530    59.1210 ha         1 11B       0.132000
     58 H4          38.9870    13.5320    57.9960 ha         1 11B       0.142000
     59 H5          40.3630    12.7890    56.0750 ha         1 11B       0.083000
     60 H6          40.8050    10.3820    55.7160 ha         1 11B       0.073000
     61 HN9         40.0850     8.1740    56.1930 hn         1 11B       0.454000
     62 HN12        40.2810     8.5810    59.6120 hn         1 11B       0.432400
     63 H111        40.8790     5.5320    58.1110 hn         1 11B       0.447500
     64 H112        40.5370     6.1010    56.5590 hn         1 11B       0.447500
@<TRIPOS>BOND
     1     1     2 ar  
     2     1     6 ar  
     3     1    36 1   
     4     2     3 ar  
     5     2    37 1   
     6     3     4 ar  
     7     3    38 1   
     8     4     5 ar  
     9     4    39 1   
    10     5     6 ar  
    11     5    40 1   
    12     6     7 1   
    13     7     8 1   
    14     7    41 1   
    15     7    42 1   
    16     8     9 1   
    17     9    10 2   
    18     9    11 1   
    19    11    12 1   
    20    11    43 1   
    21    12    13 1   
    22    12    18 1   
    23    12    44 1   
    24    13    14 1   
    25    13    45 1   
    26    13    46 1   
    27    14    15 1   
    28    14    47 1   
    29    14    48 1   
    30    15    16 1   
    31    15    49 1   
    32    15    50 1   
    33    16    17 1   
    34    16    51 1   
    35    16    52 1   
    36    17    53 1   
    37    17    54 1   
    38    17    55 1   
    39    18    19 1   
    40    18    20 1   
    41    18    21 1   
    42    21    22 1   
    43    22    23 1   
    44    22    26 1   
    45    22    56 1   
    46    23    24 1   
    47    23    25 1   
    48    26    27 ar  
    49    26    28 ar  
    50    27    31 ar  
    51    27    57 1   
    52    28    29 ar  
    53    28    58 1   
    54    29    30 ar  
    55    29    59 1   
    56    30    31 ar  
    57    30    60 1   
    58    31    32 1   
    59    32    33 1   
    60    32    61 1   
    61    33    34 2   
    62    33    35 1   
    63    34    62 1   
    64    35    63 1   
    65    35    64 1   
@<TRIPOS>SUBSTRUCTURE
     1 11B         1 TEMP              0 ****  ****    0 ROOT
