@<TRIPOS>MOLECULE
11B
   64    65     1     0     0
SMALL
No Charge or Current Charge


@<TRIPOS>ATOM
      1 C39         39.2300    15.0780    66.8800 ca         1 11B      -0.090500
      2 C40         40.3310    14.6210    67.6270 ca         1 11B      -0.124000
      3 C41         40.2510    13.4040    68.3230 ca         1 11B      -0.135000
      4 C42         39.0710    12.6420    68.2720 ca         1 11B      -0.124000
      5 C43         37.9700    13.0990    67.5260 ca         1 11B      -0.090500
      6 C38         38.0430    14.3210    66.8270 ca         1 11B      -0.070300
      7 C35         36.8490    14.8180    66.0220 c3         1 11B       0.228900
      8 O34         36.9660    14.3290    64.6770 os         1 11B      -0.451100
      9 C32         35.9920    14.6790    63.7950 c          1 11B       0.633100
     10 O33         35.0140    15.3670    64.0510 o          1 11B      -0.615000
     11 N31         36.2750    14.1220    62.5790 ns         1 11B      -0.458900
     12 C25         35.4460    14.2290    61.3420 c3         1 11B      -0.218300
     13 C26         36.0020    15.3080    60.3680 c3         1 11B      -0.058400
     14 C27         36.0270    16.7590    60.9100 c3         1 11B      -0.066400
     15 C28         34.6250    17.3810    61.1240 c3         1 11B      -0.078400
     16 C29         34.6450    18.8150    61.7070 c3         1 11B      -0.073400
     17 C30         35.2700    19.8750    60.7760 c3         1 11B      -0.085100
     18 P24         35.1600    12.5770    60.4910 p5         1 11B       1.424400
     19 O36         34.0770    12.6790    59.4640 o          1 11B      -0.833000
     20 O37         34.8790    11.5060    61.4970 o          1 11B      -0.833000
     21 O23         36.6030    12.3800    59.7870 os         1 11B      -0.618400
     22 C1          37.3790    11.1710    60.0170 c3         1 11B       0.134600
     23 C2          38.0260    11.0750    61.4500 c          1 11B       0.711000
     24 O14         38.4280     9.9790    61.8240 o          1 11B      -0.729000
     25 O13         38.1580    12.0910    62.1230 o          1 11B      -0.729000
     26 C3          38.4690    11.1040    58.9490 ca         1 11B       0.017700
     27 C8          38.5820     9.9760    58.1110 ca         1 11B      -0.127000
     28 C4          39.3710    12.1750    58.7870 ca         1 11B      -0.086000
     29 C5          40.3670    12.1220    57.7980 ca         1 11B      -0.116000
     30 C6          40.4700    10.9940    56.9680 ca         1 11B      -0.196000
     31 C7          39.5880     9.9140    57.1280 ca         1 11B       0.257000
     32 N9          39.7090     8.8150    56.2820 nu         1 11B      -0.975200
     33 C10         39.7410     7.5210    56.5050 c2         1 11B       0.794100
     34 N12         39.7190     7.0460    57.6440 n2         1 11B      -0.897100
     35 N11         40.3660     7.0060    55.4880 nv         1 11B      -1.043200
     36 H39         39.3000    16.0210    66.3410 ha         1 11B       0.135000
     37 H40         41.2440    15.2100    67.6640 ha         1 11B       0.098500
     38 H41         41.1020    13.0500    68.9000 ha         1 11B       0.088000
     39 H42         39.0090    11.6990    68.8100 ha         1 11B       0.098500
     40 H43         37.0610    12.5030    67.4890 ha         1 11B       0.135000
     41 H351        35.9200    14.4610    66.4850 h1         1 11B       0.042200
     42 H352        36.8330    15.9170    66.0350 h1         1 11B       0.042200
     43 HN31        37.0900    13.5030    62.5660 hn         1 11B       0.388500
     44 H25         34.4280    14.5090    61.6340 h1         1 11B       0.063700
     45 H261        37.0250    15.0310    60.0820 hc         1 11B       0.053700
     46 H262        35.4140    15.2950    59.4420 hc         1 11B       0.053700
     47 H271        36.5940    16.7950    61.8480 hc         1 11B       0.022700
     48 H272        36.5820    17.3740    60.1920 hc         1 11B       0.022700
     49 H281        34.0810    17.3870    60.1720 hc         1 11B       0.045700
     50 H282        34.0480    16.7480    61.8070 hc         1 11B       0.045700
     51 H291        33.6140    19.1140    61.9290 hc         1 11B       0.026200
     52 H292        35.1830    18.8120    62.6630 hc         1 11B       0.026200
     53 H301        35.1690    20.8730    61.2190 hc         1 11B       0.019033
     54 H302        36.3370    19.6830    60.6180 hc         1 11B       0.019033
     55 H303        34.7670    19.8810    59.8020 hc         1 11B       0.019033
     56 H1          36.7330    10.2890    59.9120 h1         1 11B       0.066700
     57 H8          37.8750     9.1580    58.2130 ha         1 11B       0.132000
     58 H4          39.2910    13.0530    59.4260 ha         1 11B       0.142000
     59 H5          41.0550    12.9550    57.6740 ha         1 11B       0.083000
     60 H6          41.2420    10.9590    56.2030 ha         1 11B       0.073000
     61 HN9         40.0590     9.0230    55.3570 hn         1 11B       0.454000
     62 HN12        39.4400     7.8350    58.2350 hn         1 11B       0.432400
     63 H111        40.4270     6.0050    55.6120 hn         1 11B       0.447500
     64 H112        41.2800     7.4180    55.3880 hn         1 11B       0.447500
@<TRIPOS>BOND
     1     1     2 ar  
     2     1     6 ar  
     3     1    36 1   
     4     2     3 ar  
     5     2    37 1   
     6     3     4 ar  
     7     3    38 1   
     8     4     5 ar  
     9     4    39 1   
    10     5     6 ar  
    11     5    40 1   
    12     6     7 1   
    13     7     8 1   
    14     7    41 1   
    15     7    42 1   
    16     8     9 1   
    17     9    10 2   
    18     9    11 1   
    19    11    12 1   
    20    11    43 1   
    21    12    13 1   
    22    12    18 1   
    23    12    44 1   
    24    13    14 1   
    25    13    45 1   
    26    13    46 1   
    27    14    15 1   
    28    14    47 1   
    29    14    48 1   
    30    15    16 1   
    31    15    49 1   
    32    15    50 1   
    33    16    17 1   
    34    16    51 1   
    35    16    52 1   
    36    17    53 1   
    37    17    54 1   
    38    17    55 1   
    39    18    19 1   
    40    18    20 1   
    41    18    21 1   
    42    21    22 1   
    43    22    23 1   
    44    22    26 1   
    45    22    56 1   
    46    23    24 1   
    47    23    25 1   
    48    26    27 ar  
    49    26    28 ar  
    50    27    31 ar  
    51    27    57 1   
    52    28    29 ar  
    53    28    58 1   
    54    29    30 ar  
    55    29    59 1   
    56    30    31 ar  
    57    30    60 1   
    58    31    32 1   
    59    32    33 1   
    60    32    61 1   
    61    33    34 2   
    62    33    35 1   
    63    34    62 1   
    64    35    63 1   
    65    35    64 1   
@<TRIPOS>SUBSTRUCTURE
     1 11B         1 TEMP              0 ****  ****    0 ROOT
