@<TRIPOS>MOLECULE
11C
   20    19     1     0     0
SMALL
bcc


@<TRIPOS>ATOM
      1 C            2.9960    -0.3380    -0.0160 c          1 11C       0.898600
      2 N            1.6670     1.8100     0.2000 n8         1 11C      -0.871800
      3 O            3.7500     0.1020     0.8760 o          1 11C      -0.860800
      4 CA           1.6930     0.4450    -0.3070 c3         1 11C       0.017500
      5 CB           0.4970    -0.3380     0.2440 c3         1 11C      -0.054400
      6 OAB         -4.3740    -0.7790     0.5000 o          1 11C      -0.868800
      7 OAD         -3.5330     0.7680    -0.8620 o          1 11C      -0.868800
      8 CAF         -0.8580     0.1800    -0.2240 c3         1 11C      -0.055400
      9 CAG         -2.0150    -0.5750     0.4090 c3         1 11C      -0.197400
     10 CAI         -3.4290    -0.1530    -0.0280 c          1 11C       0.923600
     11 OXT          3.1760    -1.3770    -0.6880 o          1 11C      -0.860800
     12 HN           1.9810     1.7820     1.1640 hn         1 11C       0.311300
     13 HNA          2.3810     2.3480    -0.2770 hn         1 11C       0.311300
     14 HA           1.5780     0.4950    -1.3960 h1         1 11C       0.035700
     15 HB           0.6020    -1.3880    -0.0430 hc         1 11C       0.024200
     16 HBA          0.5390    -0.3200     1.3410 hc         1 11C       0.024200
     17 HAF         -0.9350     1.2450     0.0020 hc         1 11C       0.035700
     18 HAFA        -0.9120     0.0970    -1.3140 hc         1 11C       0.035700
     19 HAG         -1.9070    -1.6490     0.2150 hc         1 11C       0.009200
     20 HAGA        -1.9550    -0.4830     1.5010 hc         1 11C       0.009200
@<TRIPOS>BOND
     1     1     3 1   
     2     1     4 1   
     3     1    11 1   
     4     2     4 1   
     5     2    12 1   
     6     2    13 1   
     7     4     5 1   
     8     4    14 1   
     9     5     8 1   
    10     5    15 1   
    11     5    16 1   
    12     6    10 1   
    13     7    10 1   
    14     8     9 1   
    15     8    17 1   
    16     8    18 1   
    17     9    10 1   
    18     9    19 1   
    19     9    20 1   
@<TRIPOS>SUBSTRUCTURE
     1 11C         1 TEMP              0 ****  ****    0 ROOT
