@<TRIPOS>MOLECULE
11C
   20    19     1     0     0
SMALL
No Charge or Current Charge


@<TRIPOS>ATOM
      1 C            3.0410    -0.3240    -0.0940 c          1 11C       0.688000
      2 N            1.6680     1.8690     0.3400 n8         1 11C      -0.982200
      3 O            3.5570    -0.3910     1.0150 o          1 11C      -0.755500
      4 CA           1.6830     0.4810    -0.2520 c3         1 11C       0.017500
      5 CB           0.4910    -0.3650     0.2760 c3         1 11C      -0.054400
      6 OAB         -3.9800     0.6400     0.6400 o          1 11C      -0.763500
      7 OAD         -3.8610    -0.4830    -1.1910 o          1 11C      -0.763500
      8 CAF         -0.9070     0.1630    -0.1360 c3         1 11C      -0.055400
      9 CAG         -2.0670    -0.7420     0.3480 c3         1 11C      -0.197400
     10 CAI         -3.4210    -0.1570    -0.0980 c          1 11C       0.713000
     11 OXT          3.5860    -0.7480    -1.1040 o          1 11C      -0.755500
     12 HN           1.9290     1.7950     1.3310 hn         1 11C       0.366500
     13 HNA          2.4390     2.4120    -0.0660 hn         1 11C       0.366500
     14 HA           1.5320     0.6050    -1.3340 h1         1 11C       0.035700
     15 HB           0.5990    -1.3870    -0.1090 hc         1 11C       0.024200
     16 HBA          0.5490    -0.4370     1.3690 hc         1 11C       0.024200
     17 HAF         -1.0510     1.1720     0.2680 hc         1 11C       0.035700
     18 HAFA        -0.9500     0.2480    -1.2290 hc         1 11C       0.035700
     19 HAG         -1.8980    -1.7210    -0.1190 hc         1 11C       0.009200
     20 HAGA        -1.9970    -0.7590     1.4430 hc         1 11C       0.009200
@<TRIPOS>BOND
     1     1     3 1   
     2     1     4 1   
     3     1    11 1   
     4     2     4 1   
     5     2    12 1   
     6     2    13 1   
     7     4     5 1   
     8     4    14 1   
     9     5     8 1   
    10     5    15 1   
    11     5    16 1   
    12     6    10 1   
    13     7    10 1   
    14     8     9 1   
    15     8    17 1   
    16     8    18 1   
    17     9    10 1   
    18     9    19 1   
    19     9    20 1   
@<TRIPOS>SUBSTRUCTURE
     1 11C         1 TEMP              0 ****  ****    0 ROOT
