@<TRIPOS>MOLECULE
11D
   63    64     1     0     0
SMALL
bcc


@<TRIPOS>ATOM
      1 C1           4.7820     1.1700    -1.7030 ca         1 11D      -0.044000
      2 C2           4.6360     1.1220    -0.2980 ca         1 11D      -0.066000
      3 C3           4.3620    -0.1260     0.3330 ca         1 11D       0.059000
      4 C4           4.3010    -1.2820    -0.5010 ca         1 11D      -0.302500
      5 C5           4.4810    -1.2040    -1.8570 ca         1 11D      -0.004000
      6 C6           4.7190     0.0380    -2.4650 ca         1 11D      -0.172000
      7 C7           4.7090     2.3220     0.4820 ca         1 11D       0.154600
      8 C8           4.4200     2.2590     1.8250 ca         1 11D      -0.189000
      9 C9           4.1300     1.0290     2.4370 ca         1 11D      -0.074000
     10 C10          4.1280    -0.1400     1.7290 ca         1 11D      -0.174000
     11 N11          5.0410     3.5180    -0.1670 nh         1 11D      -0.644000
     12 C12          4.5520     4.7400     0.4340 c3         1 11D       0.172600
     13 C13          6.4370     3.6380    -0.5630 c3         1 11D       0.172600
     14 S14          3.8800    -2.8820     0.1580 sy         1 11D       1.285200
     15 O15          3.8630    -3.8180    -0.9540 o          1 11D      -0.610300
     16 O16          4.7150    -3.1790     1.3120 o          1 11D      -0.610300
     17 N17          2.3350    -2.7640     0.7130 n7         1 11D      -0.807100
     18 C18          1.3020    -2.2530    -0.1900 c3         1 11D       0.196800
     19 C19         -0.0400    -2.2590     0.5230 c3         1 11D      -0.080400
     20 C20         -1.1350    -1.6050    -0.3110 c3         1 11D      -0.076400
     21 C21         -2.4580    -1.5140     0.4380 c3         1 11D      -0.074400
     22 C22         -3.5460    -0.7820    -0.3370 c3         1 11D      -0.074400
     23 C23         -4.8390    -0.6320     0.4540 c3         1 11D      -0.075400
     24 C24         -5.9240     0.1360    -0.2900 c3         1 11D      -0.074400
     25 C25         -7.1950     0.3210     0.5290 c3         1 11D      -0.079400
     26 C26         -8.2790     1.1040    -0.2020 c3         1 11D      -0.053400
     27 C27         -9.5300     1.2970     0.6370 c3         1 11D      -0.204400
     28 C28        -10.6810     2.0760    -0.0220 c          1 11D       0.927600
     29 O29        -10.5320     2.4510    -1.2020 o          1 11D      -0.848800
     30 O30        -11.6890     2.2690     0.6910 o          1 11D      -0.848800
     31 H1           4.9200     2.1270    -2.1860 ha         1 11D       0.148000
     32 H5           4.4200    -2.0880    -2.4750 ha         1 11D       0.162000
     33 H6           4.8260     0.0920    -3.5390 ha         1 11D       0.138000
     34 H8           4.4410     3.1510     2.4370 ha         1 11D       0.136000
     35 H9           3.9380     1.0060     3.5010 ha         1 11D       0.135000
     36 H10          3.9660    -1.0620     2.2660 ha         1 11D       0.141000
     37 H12          5.0940     5.0340     1.3430 h1         1 11D       0.037033
     38 H12A         4.6600     5.5520    -0.2860 h1         1 11D       0.037033
     39 H12B         3.4950     4.6480     0.6790 h1         1 11D       0.037033
     40 H13          6.8110     2.7060    -0.9790 h1         1 11D       0.037033
     41 H13A         6.5400     4.4100    -1.3260 h1         1 11D       0.037033
     42 H13B         7.0800     3.9090     0.2850 h1         1 11D       0.037033
     43 HN17         2.2940    -2.3610     1.6430 hn         1 11D       0.424800
     44 H18          1.5350    -1.2360    -0.5250 h1         1 11D       0.053200
     45 H18A         1.2650    -2.8920    -1.0730 h1         1 11D       0.053200
     46 H19         -0.3190    -3.2840     0.7770 hc         1 11D       0.048200
     47 H19A         0.0560    -1.7150     1.4690 hc         1 11D       0.048200
     48 H20         -0.8140    -0.5990    -0.6000 hc         1 11D       0.039700
     49 H20A        -1.2750    -2.1610    -1.2440 hc         1 11D       0.039700
     50 H21         -2.8060    -2.5200     0.6960 hc         1 11D       0.036700
     51 H21A        -2.2910    -0.9990     1.3910 hc         1 11D       0.036700
     52 H22         -3.1790     0.2110    -0.6210 hc         1 11D       0.035700
     53 H22A        -3.7490    -1.3080    -1.2760 hc         1 11D       0.035700
     54 H23         -5.2180    -1.6240     0.7270 hc         1 11D       0.032700
     55 H23A        -4.6220    -0.1230     1.4000 hc         1 11D       0.032700
     56 H24         -5.5360     1.1180    -0.5820 hc         1 11D       0.034200
     57 H24A        -6.1640    -0.3830    -1.2250 hc         1 11D       0.034200
     58 H25         -7.5870    -0.6620     0.8180 hc         1 11D       0.023700
     59 H25A        -6.9470     0.8310     1.4670 hc         1 11D       0.023700
     60 H26         -7.8780     2.0780    -0.5010 hc         1 11D       0.037700
     61 H26A        -8.5320     0.5870    -1.1330 hc         1 11D       0.037700
     62 H27         -9.9180     0.3180     0.9460 hc         1 11D       0.014700
     63 H27A        -9.2680     1.8000     1.5750 hc         1 11D       0.014700
@<TRIPOS>BOND
     1     1     2 ar  
     2     1     6 ar  
     3     1    31 1   
     4     2     3 ar  
     5     2     7 ar  
     6     3     4 ar  
     7     3    10 ar  
     8     4     5 ar  
     9     4    14 1   
    10     5     6 ar  
    11     5    32 1   
    12     6    33 1   
    13     7     8 ar  
    14     7    11 1   
    15     8     9 ar  
    16     8    34 1   
    17     9    10 ar  
    18     9    35 1   
    19    10    36 1   
    20    11    12 1   
    21    11    13 1   
    22    12    37 1   
    23    12    38 1   
    24    12    39 1   
    25    13    40 1   
    26    13    41 1   
    27    13    42 1   
    28    14    15 2   
    29    14    16 2   
    30    14    17 1   
    31    17    18 1   
    32    17    43 1   
    33    18    19 1   
    34    18    44 1   
    35    18    45 1   
    36    19    20 1   
    37    19    46 1   
    38    19    47 1   
    39    20    21 1   
    40    20    48 1   
    41    20    49 1   
    42    21    22 1   
    43    21    50 1   
    44    21    51 1   
    45    22    23 1   
    46    22    52 1   
    47    22    53 1   
    48    23    24 1   
    49    23    54 1   
    50    23    55 1   
    51    24    25 1   
    52    24    56 1   
    53    24    57 1   
    54    25    26 1   
    55    25    58 1   
    56    25    59 1   
    57    26    27 1   
    58    26    60 1   
    59    26    61 1   
    60    27    28 1   
    61    27    62 1   
    62    27    63 1   
    63    28    29 1   
    64    28    30 1   
@<TRIPOS>SUBSTRUCTURE
     1 11D         1 TEMP              0 ****  ****    0 ROOT
