@<TRIPOS>MOLECULE
11D
   63    64     1     0     0
SMALL
No Charge or Current Charge


@<TRIPOS>ATOM
      1 C1           4.8040     1.0410    -1.7500 ca         1 11D      -0.026000
      2 C2           4.6150     1.0050    -0.3500 ca         1 11D      -0.066000
      3 C3           4.3380    -0.2370     0.2910 ca         1 11D       0.059000
      4 C4           4.2830    -1.4350    -0.4920 ca         1 11D      -0.302500
      5 C5           4.4780    -1.3570    -1.8880 ca         1 11D       0.014000
      6 C6           4.7310    -0.1300    -2.5090 ca         1 11D      -0.154000
      7 C7           4.6820     2.2070     0.4080 ca         1 11D       0.293000
      8 C8           4.4490     2.1680     1.7900 ca         1 11D      -0.171000
      9 C9           4.1540     0.9600     2.4270 ca         1 11D      -0.056000
     10 C10          4.0990    -0.2280     1.6870 ca         1 11D      -0.156000
     11 N11          4.9870     3.4590    -0.1800 nh         1 11D      -0.782400
     12 C12          4.0640     4.6030    -0.0270 c3         1 11D       0.172600
     13 C13          6.3720     3.7660    -0.5940 c3         1 11D       0.172600
     14 S14          3.9990    -3.1020     0.1810 sy         1 11D       1.143600
     15 O15          4.1410    -4.1170    -0.8660 o          1 11D      -0.539500
     16 O16          4.6880    -3.2340     1.4650 o          1 11D      -0.539500
     17 N17          2.3770    -3.0980     0.5870 n7         1 11D      -0.862300
     18 C18          1.5000    -2.0220     0.0970 c3         1 11D       0.196800
     19 C19          0.0490    -2.2940     0.5380 c3         1 11D      -0.080400
     20 C20         -0.9380    -1.2080     0.0550 c3         1 11D      -0.076400
     21 C21         -2.3940    -1.4750     0.4950 c3         1 11D      -0.074400
     22 C22         -3.3800    -0.3880     0.0120 c3         1 11D      -0.074400
     23 C23         -4.8360    -0.6540     0.4520 c3         1 11D      -0.075400
     24 C24         -5.8220     0.4320    -0.0310 c3         1 11D      -0.074400
     25 C25         -7.2780     0.1660     0.4090 c3         1 11D      -0.079400
     26 C26         -8.2650     1.2530    -0.0740 c3         1 11D      -0.053400
     27 C27         -9.7260     0.9880     0.3660 c3         1 11D      -0.204400
     28 C28        -10.6470     2.1090    -0.1500 c          1 11D       0.717000
     29 O29        -11.1460     1.9820    -1.2580 o          1 11D      -0.743500
     30 O30        -10.8030     3.0970     0.5510 o          1 11D      -0.743500
     31 H1           4.9950     1.9790    -2.2650 ha         1 11D       0.130000
     32 H5           4.4360    -2.2490    -2.5110 ha         1 11D       0.144000
     33 H6           4.8760    -0.0880    -3.5860 ha         1 11D       0.120000
     34 H8           4.5000     3.0830     2.3740 ha         1 11D       0.118000
     35 H9           3.9660     0.9430     3.4980 ha         1 11D       0.117000
     36 H10          3.8460    -1.1270     2.2340 ha         1 11D       0.123000
     37 H12          4.3430     5.2110     0.8440 h1         1 11D       0.037033
     38 H12A         4.0880     5.2380    -0.9230 h1         1 11D       0.037033
     39 H12B         3.0330     4.2500     0.1080 h1         1 11D       0.037033
     40 H13          6.9770     2.8500    -0.6310 h1         1 11D       0.037033
     41 H13A         6.3810     4.2190    -1.5950 h1         1 11D       0.037033
     42 H13B         6.8410     4.4610     0.1150 h1         1 11D       0.037033
     43 HN17         2.4300    -3.0730     1.6030 hn         1 11D       0.480000
     44 H18          1.8020    -1.0430     0.4900 h1         1 11D       0.053200
     45 H18A         1.5300    -1.9700    -1.0010 h1         1 11D       0.053200
     46 H19         -0.2680    -3.2690     0.1480 hc         1 11D       0.048200
     47 H19A         0.0090    -2.3550     1.6320 hc         1 11D       0.048200
     48 H20         -0.6180    -0.2320     0.4420 hc         1 11D       0.039700
     49 H20A        -0.8980    -1.1470    -1.0400 hc         1 11D       0.039700
     50 H21         -2.7150    -2.4500     0.1070 hc         1 11D       0.036700
     51 H21A        -2.4340    -1.5360     1.5900 hc         1 11D       0.036700
     52 H22         -3.0590     0.5870     0.3990 hc         1 11D       0.035700
     53 H22A        -3.3400    -0.3270    -1.0830 hc         1 11D       0.035700
     54 H23         -5.1570    -1.6290     0.0640 hc         1 11D       0.032700
     55 H23A        -4.8760    -0.7160     1.5470 hc         1 11D       0.032700
     56 H24         -5.5010     1.4070     0.3570 hc         1 11D       0.034200
     57 H24A        -5.7820     0.4930    -1.1260 hc         1 11D       0.034200
     58 H25         -7.5980    -0.8090     0.0210 hc         1 11D       0.023700
     59 H25A        -7.3170     0.1050     1.5040 hc         1 11D       0.023700
     60 H26         -7.9430     2.2280     0.3130 hc         1 11D       0.037700
     61 H26A        -8.2240     1.3150    -1.1690 hc         1 11D       0.037700
     62 H27        -10.0040     0.0260    -0.0810 hc         1 11D       0.014700
     63 H27A        -9.7120     0.9780     1.4630 hc         1 11D       0.014700
@<TRIPOS>BOND
     1     1     2 ar  
     2     1     6 ar  
     3     1    31 1   
     4     2     3 ar  
     5     2     7 ar  
     6     3     4 ar  
     7     3    10 ar  
     8     4     5 ar  
     9     4    14 1   
    10     5     6 ar  
    11     5    32 1   
    12     6    33 1   
    13     7     8 ar  
    14     7    11 1   
    15     8     9 ar  
    16     8    34 1   
    17     9    10 ar  
    18     9    35 1   
    19    10    36 1   
    20    11    12 1   
    21    11    13 1   
    22    12    37 1   
    23    12    38 1   
    24    12    39 1   
    25    13    40 1   
    26    13    41 1   
    27    13    42 1   
    28    14    15 2   
    29    14    16 2   
    30    14    17 1   
    31    17    18 1   
    32    17    43 1   
    33    18    19 1   
    34    18    44 1   
    35    18    45 1   
    36    19    20 1   
    37    19    46 1   
    38    19    47 1   
    39    20    21 1   
    40    20    48 1   
    41    20    49 1   
    42    21    22 1   
    43    21    50 1   
    44    21    51 1   
    45    22    23 1   
    46    22    52 1   
    47    22    53 1   
    48    23    24 1   
    49    23    54 1   
    50    23    55 1   
    51    24    25 1   
    52    24    56 1   
    53    24    57 1   
    54    25    26 1   
    55    25    58 1   
    56    25    59 1   
    57    26    27 1   
    58    26    60 1   
    59    26    61 1   
    60    27    28 1   
    61    27    62 1   
    62    27    63 1   
    63    28    29 1   
    64    28    30 1   
@<TRIPOS>SUBSTRUCTURE
     1 11D         1 TEMP              0 ****  ****    0 ROOT
