@<TRIPOS>MOLECULE
11E
   25    26     1     0     0
SMALL
abcg2


@<TRIPOS>ATOM
      1 O3           6.2260     0.0860    -0.2590 o          1 11E      -0.728500
      2 C9           5.0300     0.4220    -0.2660 c          1 11E       0.713000
      3 O2           4.5590     1.5630    -0.4450 o          1 11E      -0.728500
      4 C8           4.0210    -0.7200    -0.0230 c3         1 11E      -0.060000
      5 N1           2.6750    -0.2130    -0.0460 ns         1 11E      -0.453900
      6 C7           1.5900    -0.9650     0.1490 c          1 11E       0.591700
      7 O1           1.6540    -2.1780     0.3370 o          1 11E      -0.658100
      8 C3           0.2680    -0.2650     0.1170 ca         1 11E      -0.132600
      9 C2           0.1300     1.1260     0.2140 ca         1 11E      -0.070000
     10 C4          -0.8720    -1.0560     0.0040 ca         1 11E      -0.021000
     11 C5          -2.1070    -0.4410    -0.0280 ca         1 11E      -0.197000
     12 S1          -3.6790    -1.1730    -0.1750 ss         1 11E      -0.065200
     13 C6          -2.2570     0.9540     0.0620 ca         1 11E       0.141400
     14 C1          -1.1110     1.7360     0.1900 ca         1 11E      -0.097000
     15 N2          -3.5420     1.4200     0.0160 nc         1 11E      -0.636100
     16 C10         -4.3840     0.4410    -0.1050 cd         1 11E       0.638100
     17 N3          -5.7120     0.5830    -0.1440 nv         1 11E      -1.034200
     18 H2           4.1650    -1.4900    -0.7880 h1         1 11E       0.038200
     19 H3           4.2440    -1.1930     0.9380 h1         1 11E       0.038200
     20 H4           2.6180     0.7740    -0.2500 hn         1 11E       0.342500
     21 H5           0.9970     1.7630     0.3350 ha         1 11E       0.136000
     22 H6          -0.7830    -2.1320    -0.0620 ha         1 11E       0.144000
     23 H7          -1.1970     2.8110     0.2740 ha         1 11E       0.125000
     24 H8          -6.3070    -0.1760    -0.4290 hn         1 11E       0.487500
     25 H9          -6.0860     1.5110    -0.2560 hn         1 11E       0.487500
@<TRIPOS>BOND
     1     1     2 1   
     2     2     3 1   
     3     2     4 1   
     4     4     5 1   
     5     4    18 1   
     6     4    19 1   
     7     5     6 1   
     8     5    20 1   
     9     6     7 2   
    10     6     8 1   
    11     8     9 ar  
    12     8    10 ar  
    13     9    14 ar  
    14     9    21 1   
    15    10    11 ar  
    16    10    22 1   
    17    11    12 1   
    18    11    13 ar  
    19    12    16 1   
    20    13    14 ar  
    21    13    15 1   
    22    14    23 1   
    23    15    16 2   
    24    16    17 1   
    25    17    24 1   
    26    17    25 1   
@<TRIPOS>SUBSTRUCTURE
     1 11E         1 TEMP              0 ****  ****    0 ROOT
