@<TRIPOS>MOLECULE
11E
   25    26     1     0     0
SMALL
No Charge or Current Charge


@<TRIPOS>ATOM
      1 O3           6.2570     0.1820    -0.5060 o          1 11E      -0.728500
      2 C9           5.1340     0.4600    -0.1110 c          1 11E       0.713000
      3 O2           4.7720     1.6020     0.1420 o          1 11E      -0.728500
      4 C8           4.1050    -0.6970     0.0310 c3         1 11E      -0.060000
      5 N1           2.7050    -0.2130     0.0190 ns         1 11E      -0.453900
      6 C7           1.5860    -1.0180     0.0180 c          1 11E       0.591700
      7 O1           1.6880    -2.2390     0.0210 o          1 11E      -0.658100
      8 C3           0.2400    -0.3210     0.0150 ca         1 11E      -0.132600
      9 C2           0.1140     1.0950     0.0090 ca         1 11E      -0.070000
     10 C4          -0.9400    -1.1020     0.0160 ca         1 11E      -0.021000
     11 C5          -2.1880    -0.4620     0.0130 ca         1 11E      -0.197000
     12 S1          -3.7490    -1.2620     0.0130 ss         1 11E      -0.065200
     13 C6          -2.3150     0.9160     0.0070 ca         1 11E       0.141400
     14 C1          -1.1570     1.7060     0.0050 ca         1 11E      -0.097000
     15 N2          -3.6060     1.4390     0.0040 nc         1 11E      -0.636100
     16 C10         -4.4130     0.3890     0.0100 cd         1 11E       0.638100
     17 N3          -5.7280     0.6630    -0.0030 nv         1 11E      -1.034200
     18 H2           4.2500    -1.4000    -0.7990 h1         1 11E       0.038200
     19 H3           4.2980    -1.2180     0.9770 h1         1 11E       0.038200
     20 H4           2.5560     0.7890     0.0250 hn         1 11E       0.342500
     21 H5           0.9890     1.7410     0.0070 ha         1 11E       0.136000
     22 H6          -0.8890    -2.1900     0.0200 ha         1 11E       0.144000
     23 H7          -1.2410     2.7900     0.0010 ha         1 11E       0.125000
     24 H8          -6.3520    -0.0710    -0.3190 hn         1 11E       0.487500
     25 H9          -5.9790     1.6110    -0.2560 hn         1 11E       0.487500
@<TRIPOS>BOND
     1     1     2 1   
     2     2     3 1   
     3     2     4 1   
     4     4     5 1   
     5     4    18 1   
     6     4    19 1   
     7     5     6 1   
     8     5    20 1   
     9     6     7 2   
    10     6     8 1   
    11     8     9 ar  
    12     8    10 ar  
    13     9    14 ar  
    14     9    21 1   
    15    10    11 ar  
    16    10    22 1   
    17    11    12 1   
    18    11    13 ar  
    19    12    16 1   
    20    13    14 ar  
    21    13    15 1   
    22    14    23 1   
    23    15    16 2   
    24    16    17 1   
    25    17    24 1   
    26    17    25 1   
@<TRIPOS>SUBSTRUCTURE
     1 11E         1 TEMP              0 ****  ****    0 ROOT
