@<TRIPOS>MOLECULE
11F
   49    51     1     0     0
SMALL
abcg2


@<TRIPOS>ATOM
      1 C1K         -4.8240     1.2370     1.3470 ca         1 11F      -0.092500
      2 C1I         -5.9700     2.0190     1.4070 ca         1 11F      -0.114500
      3 C1H         -6.6060     2.4130     0.2370 ca         1 11F      -0.108000
      4 C1J         -6.0830     2.0230    -0.9900 ca         1 11F      -0.114500
      5 C1L         -4.9400     1.2400    -1.0480 ca         1 11F      -0.092500
      6 C1V         -4.2940     0.8350     0.1210 cp         1 11F      -0.023000
      7 C1Z         -3.0520     0.0330     0.0840 cp         1 11F      -0.071000
      8 C1Y         -2.9730    -1.1830    -0.6170 ca         1 11F       0.156100
      9 C1O         -1.7850    -1.9080    -0.6250 ca         1 11F      -0.201000
     10 O1R         -4.0930    -1.5880    -1.2420 os         1 11F      -0.335100
     11 C1A         -4.0820    -2.8150    -1.9430 c3         1 11F       0.147900
     12 C1N         -1.9230     0.4640     0.7700 ca         1 11F      -0.069000
     13 C1M         -0.7390    -0.2600     0.7670 ca         1 11F      -0.145000
     14 C1W         -0.6640    -1.4520     0.0610 ca         1 11F      -0.032300
     15 C2A          0.5850    -2.3120     0.0670 c3         1 11F       0.076700
     16 C1C          0.5660    -3.2820     1.2600 c3         1 11F      -0.081100
     17 C1G          1.7980    -1.5000     0.0700 c1         1 11F      -0.162100
     18 C1F          2.8000    -0.8280     0.0900 cg         1 11F      -0.080000
     19 C5           3.9350     0.0190     0.1150 ca         1 11F      -0.227000
     20 C6           5.2440    -0.4590     0.1420 ca         1 11F       0.224300
     21 C1B          5.5120    -1.9300     0.1260 c3         1 11F      -0.153400
     22 N1           6.2920     0.3520     0.1740 nb         1 11F      -0.294000
     23 C2           6.0370     1.6670     0.1800 ca         1 11F       0.431900
     24 N1D          7.1000     2.4880     0.2440 nv         1 11F      -1.065900
     25 N3           4.8340     2.2390     0.1520 nb         1 11F      -0.342000
     26 C4           3.7820     1.4300     0.1210 ca         1 11F       0.444900
     27 N1E          2.5650     1.9900     0.1170 nv         1 11F      -1.072900
     28 H1K         -4.3430     0.9270     2.2670 ha         1 11F       0.114500
     29 H1I         -6.3690     2.3120     2.3690 ha         1 11F       0.111000
     30 H1H         -7.5000     3.0220     0.2810 ha         1 11F       0.111000
     31 H1J         -6.5680     2.3300    -1.9080 ha         1 11F       0.111000
     32 H1L         -4.5380     0.9590    -2.0120 ha         1 11F       0.114500
     33 H1O         -1.7150    -2.8410    -1.1690 ha         1 11F       0.117000
     34 H1A         -3.3610    -2.8120    -2.7650 h1         1 11F       0.041033
     35 H1AA        -3.8620    -3.6600    -1.2850 h1         1 11F       0.041033
     36 H1AB        -5.0800    -2.9420    -2.3540 h1         1 11F       0.041033
     37 H1N         -1.9680     1.4010     1.3120 ha         1 11F       0.118000
     38 H1M          0.1200     0.1140     1.3120 ha         1 11F       0.122000
     39 H2A          0.5820    -2.9130    -0.8480 hc         1 11F       0.064700
     40 H1C          1.4450    -3.9260     1.2440 hc         1 11F       0.042033
     41 H1CA         0.5550    -2.7350     2.2020 hc         1 11F       0.042033
     42 H1CB        -0.3220    -3.9120     1.2140 hc         1 11F       0.042033
     43 H1B          5.2260    -2.3610    -0.8350 hc         1 11F       0.056700
     44 H1BA         6.5680    -2.1290     0.2940 hc         1 11F       0.056700
     45 H1BB         4.9280    -2.4450     0.8890 hc         1 11F       0.056700
     46 HN1D         8.0220     2.1110     0.1140 hn         1 11F       0.498500
     47 HN1A         6.9730     3.4750     0.1060 hn         1 11F       0.498500
     48 HN1E         2.4810     2.9880     0.0240 hn         1 11F       0.499500
     49 HN1B         1.7410     1.4350    -0.0420 hn         1 11F       0.499500
@<TRIPOS>BOND
     1     1     2 ar  
     2     1     6 ar  
     3     1    28 1   
     4     2     3 ar  
     5     2    29 1   
     6     3     4 ar  
     7     3    30 1   
     8     4     5 ar  
     9     4    31 1   
    10     5     6 ar  
    11     5    32 1   
    12     6     7 1   
    13     7     8 ar  
    14     7    12 ar  
    15     8     9 ar  
    16     8    10 1   
    17     9    14 ar  
    18     9    33 1   
    19    10    11 1   
    20    11    34 1   
    21    11    35 1   
    22    11    36 1   
    23    12    13 ar  
    24    12    37 1   
    25    13    14 ar  
    26    13    38 1   
    27    14    15 1   
    28    15    16 1   
    29    15    17 1   
    30    15    39 1   
    31    16    40 1   
    32    16    41 1   
    33    16    42 1   
    34    17    18 3   
    35    18    19 1   
    36    19    20 ar  
    37    19    26 ar  
    38    20    21 1   
    39    20    22 ar  
    40    21    43 1   
    41    21    44 1   
    42    21    45 1   
    43    22    23 ar  
    44    23    24 1   
    45    23    25 ar  
    46    24    46 1   
    47    24    47 1   
    48    25    26 ar  
    49    26    27 1   
    50    27    48 1   
    51    27    49 1   
@<TRIPOS>SUBSTRUCTURE
     1 11F         1 TEMP              0 ****  ****    0 ROOT
