@<TRIPOS>MOLECULE
11F
   49    51     1     0     0
SMALL
No Charge or Current Charge


@<TRIPOS>ATOM
      1 C1K         -5.1520     0.9520     1.4240 ca         1 11F      -0.092500
      2 C1I         -6.3080     1.7510     1.3930 ca         1 11F      -0.114500
      3 C1H         -6.6830     2.3990     0.2050 ca         1 11F      -0.108000
      4 C1J         -5.9000     2.2490    -0.9500 ca         1 11F      -0.114500
      5 C1L         -4.7440     1.4490    -0.9180 ca         1 11F      -0.092500
      6 C1V         -4.3510     0.7790     0.2680 cp         1 11F      -0.023000
      7 C1Z         -3.1130    -0.0630     0.3200 cp         1 11F      -0.071000
      8 C1Y         -2.8100    -1.0470    -0.6620 ca         1 11F       0.156100
      9 C1O         -1.6260    -1.8130    -0.5740 ca         1 11F      -0.201000
     10 O1R         -3.7320    -1.2390    -1.6750 os         1 11F      -0.335100
     11 C1A         -3.5440    -2.2130    -2.7170 c3         1 11F       0.147900
     12 C1N         -2.1960     0.1120     1.3840 ca         1 11F      -0.069000
     13 C1M         -1.0210    -0.6500     1.4680 ca         1 11F      -0.145000
     14 C1W         -0.7240    -1.6200     0.4900 ca         1 11F      -0.032300
     15 C2A          0.5580    -2.4560     0.5730 c3         1 11F       0.076700
     16 C1C          0.6660    -3.2390     1.9010 c3         1 11F      -0.081100
     17 C1G          1.7340    -1.5990     0.3610 c1         1 11F      -0.162100
     18 C1F          2.6890    -0.8640     0.2110 cg         1 11F      -0.080000
     19 C5           3.8290     0.0010     0.0390 ca         1 11F      -0.227000
     20 C6           5.1500    -0.5020     0.0660 ca         1 11F       0.224300
     21 C1B          5.4660    -1.9770     0.2800 c3         1 11F      -0.153400
     22 N1           6.2090     0.3150    -0.1020 nb         1 11F      -0.294000
     23 C2           5.9360     1.6110    -0.2910 ca         1 11F       0.431900
     24 N1D          6.9990     2.4250    -0.4620 nv         1 11F      -1.065900
     25 N3           4.7390     2.1990    -0.3370 nb         1 11F      -0.342000
     26 C4           3.6920     1.3880    -0.1680 ca         1 11F       0.444900
     27 N1E          2.4870     2.0120    -0.2180 nv         1 11F      -1.072900
     28 H1K         -4.8770     0.4530     2.3510 ha         1 11F       0.114500
     29 H1I         -6.9130     1.8680     2.2900 ha         1 11F       0.111000
     30 H1H         -7.5780     3.0180     0.1810 ha         1 11F       0.111000
     31 H1J         -6.1850     2.7540    -1.8700 ha         1 11F       0.111000
     32 H1L         -4.1400     1.3540    -1.8170 ha         1 11F       0.114500
     33 H1O         -1.3960    -2.5650    -1.3230 ha         1 11F       0.117000
     34 H1A         -2.6320    -2.0010    -3.2890 h1         1 11F       0.041033
     35 H1AA        -3.4720    -3.2250    -2.2970 h1         1 11F       0.041033
     36 H1AB        -4.3930    -2.1940    -3.4120 h1         1 11F       0.041033
     37 H1N         -2.3950     0.8610     2.1480 ha         1 11F       0.118000
     38 H1M         -0.3350    -0.4780     2.2940 ha         1 11F       0.122000
     39 H2A          0.5570    -3.1990    -0.2340 hc         1 11F       0.064700
     40 H1C          1.5500    -3.8890     1.8960 hc         1 11F       0.042033
     41 H1CA         0.7460    -2.5640     2.7610 hc         1 11F       0.042033
     42 H1CB        -0.2180    -3.8720     2.0430 hc         1 11F       0.042033
     43 H1B          5.0170    -2.5910    -0.5090 hc         1 11F       0.056700
     44 H1BA         6.5450    -2.1700     0.2750 hc         1 11F       0.056700
     45 H1BB         5.0730    -2.3250     1.2430 hc         1 11F       0.056700
     46 HN1D         7.8980     1.9980    -0.6730 hn         1 11F       0.498500
     47 HN1A         6.8360     3.3550    -0.8390 hn         1 11F       0.498500
     48 HN1E         2.4490     2.9460    -0.6170 hn         1 11F       0.499500
     49 HN1B         1.6550     1.4350    -0.3130 hn         1 11F       0.499500
@<TRIPOS>BOND
     1     1     2 ar  
     2     1     6 ar  
     3     1    28 1   
     4     2     3 ar  
     5     2    29 1   
     6     3     4 ar  
     7     3    30 1   
     8     4     5 ar  
     9     4    31 1   
    10     5     6 ar  
    11     5    32 1   
    12     6     7 1   
    13     7     8 ar  
    14     7    12 ar  
    15     8     9 ar  
    16     8    10 1   
    17     9    14 ar  
    18     9    33 1   
    19    10    11 1   
    20    11    34 1   
    21    11    35 1   
    22    11    36 1   
    23    12    13 ar  
    24    12    37 1   
    25    13    14 ar  
    26    13    38 1   
    27    14    15 1   
    28    15    16 1   
    29    15    17 1   
    30    15    39 1   
    31    16    40 1   
    32    16    41 1   
    33    16    42 1   
    34    17    18 3   
    35    18    19 1   
    36    19    20 ar  
    37    19    26 ar  
    38    20    21 1   
    39    20    22 ar  
    40    21    43 1   
    41    21    44 1   
    42    21    45 1   
    43    22    23 ar  
    44    23    24 1   
    45    23    25 ar  
    46    24    46 1   
    47    24    47 1   
    48    25    26 ar  
    49    26    27 1   
    50    27    48 1   
    51    27    49 1   
@<TRIPOS>SUBSTRUCTURE
     1 11F         1 TEMP              0 ****  ****    0 ROOT
