@<TRIPOS>MOLECULE
11G
   39    41     1     0     0
SMALL
abcg2


@<TRIPOS>ATOM
      1 O18         13.7670     4.3770    10.4320 o          1 11G      -0.546000
      2 C8          12.6500     4.8720    10.3300 c          1 11G       0.562000
      3 N7          11.5240     4.1250    10.1650 n          1 11G      -0.198400
      4 C19         11.6300     2.6700    10.0860 c3         1 11G       0.081300
      5 C2          10.2630     4.7250    10.0450 ca         1 11G      -0.187000
      6 C9          12.5160     6.3880    10.3410 c6         1 11G       0.162500
      7 C16         13.0540     6.9600     9.0120 c3         1 11G      -0.093400
      8 C17         12.2460     6.5550     7.7830 c3         1 11G      -0.094100
      9 N10         11.1730     6.8570    10.6780 nh         1 11G      -0.775300
     10 C11         10.9620     8.2420    11.1300 c5         1 11G       0.237500
     11 C15         10.6580     9.2810    10.0100 c5         1 11G      -0.093900
     12 C14         11.4360    10.5550    10.4030 c5         1 11G      -0.081400
     13 C13         11.8090    10.3450    11.8780 c5         1 11G      -0.081400
     14 C12         12.1130     8.8470    11.9440 c5         1 11G      -0.093900
     15 C3          10.1010     6.1020    10.3550 ca         1 11G       0.364900
     16 N4           8.8760     6.6420    10.3610 nb         1 11G      -0.245000
     17 C5           7.8500     5.8610    10.0220 ca         1 11G       0.134900
     18 N6           7.9040     4.5880     9.6640 nb         1 11G      -0.189000
     19 C1           9.1310     4.0260     9.6900 ca         1 11G       0.085900
     20 H1          12.6420     2.3900    10.3540 h1         1 11G       0.054700
     21 H2          10.9240     2.2140    10.7800 h1         1 11G       0.054700
     22 H3          11.4130     2.3250     9.0740 h1         1 11G       0.054700
     23 H4          13.1880     6.7020    11.1360 h1         1 11G       0.089700
     24 H5          14.0880     6.6250     8.9140 hc         1 11G       0.059700
     25 H6          13.0860     8.0460     9.1010 hc         1 11G       0.059700
     26 H7          12.6700     7.0100     6.8870 hc         1 11G       0.040367
     27 H8          12.2500     5.4720     7.6400 hc         1 11G       0.040367
     28 H9          11.2070     6.8800     7.8590 hc         1 11G       0.040367
     29 H10         10.0920     8.1940    11.7820 h1         1 11G       0.078700
     30 H11          9.5850     9.4620     9.9660 hc         1 11G       0.053450
     31 H12         10.9570     8.9060     9.0330 hc         1 11G       0.053450
     32 H13         12.3490    10.6330     9.8070 hc         1 11G       0.046700
     33 H14         10.8590    11.4650    10.2380 hc         1 11G       0.046700
     34 H15         12.6520    10.9590    12.1970 hc         1 11G       0.046700
     35 H16         10.9580    10.5840    12.5220 hc         1 11G       0.046700
     36 H17         12.1560     8.4450    12.9570 hc         1 11G       0.053450
     37 H18         13.0800     8.6710    11.4700 hc         1 11G       0.053450
     38 H19          6.8700     6.3280    10.0390 h5         1 11G       0.049100
     39 H20          9.1870     2.9780     9.4290 h4         1 11G       0.026100
@<TRIPOS>BOND
     1     1     2 2   
     2     2     3 1   
     3     2     6 1   
     4     3     4 1   
     5     3     5 1   
     6     4    20 1   
     7     4    21 1   
     8     4    22 1   
     9     5    15 ar  
    10     5    19 ar  
    11     6     7 1   
    12     6     9 1   
    13     6    23 1   
    14     7     8 1   
    15     7    24 1   
    16     7    25 1   
    17     8    26 1   
    18     8    27 1   
    19     8    28 1   
    20     9    10 1   
    21     9    15 1   
    22    10    11 1   
    23    10    14 1   
    24    10    29 1   
    25    11    12 1   
    26    11    30 1   
    27    11    31 1   
    28    12    13 1   
    29    12    32 1   
    30    12    33 1   
    31    13    14 1   
    32    13    34 1   
    33    13    35 1   
    34    14    36 1   
    35    14    37 1   
    36    15    16 ar  
    37    16    17 ar  
    38    17    18 ar  
    39    17    38 1   
    40    18    19 ar  
    41    19    39 1   
@<TRIPOS>SUBSTRUCTURE
     1 11G         1 TEMP              0 ****  ****    0 ROOT
