@<TRIPOS>MOLECULE
11G
   39    41     1     0     0
SMALL
No Charge or Current Charge


@<TRIPOS>ATOM
      1 O18         13.7990     4.2590    10.5140 o          1 11G      -0.546000
      2 C8          12.7070     4.7980    10.3450 c          1 11G       0.562000
      3 N7          11.5090     4.0570    10.2200 n          1 11G      -0.198400
      4 C19         11.5620     2.5780    10.3280 c3         1 11G       0.081300
      5 C2          10.2230     4.7120    10.1180 ca         1 11G      -0.187000
      6 C9          12.5840     6.3540    10.2710 c6         1 11G       0.162500
      7 C16         13.1260     6.8330     8.8840 c3         1 11G      -0.093400
      8 C17         12.2670     6.4530     7.6560 c3         1 11G      -0.094100
      9 N10         11.2170     6.9500    10.5520 nh         1 11G      -0.775300
     10 C11         10.9950     8.3130    11.1690 c5         1 11G       0.237500
     11 C15         10.7320     9.3460    10.0360 c5         1 11G      -0.093900
     12 C14         11.0550    10.7150    10.7190 c5         1 11G      -0.081400
     13 C13         11.8180    10.3500    12.0340 c5         1 11G      -0.081400
     14 C12         12.2990     8.9010    11.7720 c5         1 11G      -0.093900
     15 C3          10.0990     6.1190    10.2560 ca         1 11G       0.364900
     16 N4           8.9020     6.7260    10.1070 nb         1 11G      -0.245000
     17 C5           7.8550     5.9520     9.7640 ca         1 11G       0.134900
     18 N6           7.8820     4.6280     9.5310 nb         1 11G      -0.189000
     19 C1           9.0690     4.0150     9.6910 ca         1 11G       0.085900
     20 H1          12.4810     2.2440    10.8260 h1         1 11G       0.054700
     21 H2          10.7120     2.2150    10.9190 h1         1 11G       0.054700
     22 H3          11.5190     2.1360     9.3250 h1         1 11G       0.054700
     23 H4          13.3000     6.6790    11.0370 h1         1 11G       0.089700
     24 H5          14.1330     6.4260     8.7330 hc         1 11G       0.059700
     25 H6          13.2570     7.9210     8.8910 hc         1 11G       0.059700
     26 H7          12.7460     6.8030     6.7340 hc         1 11G       0.040367
     27 H8          12.1430     5.3660     7.5820 hc         1 11G       0.040367
     28 H9          11.2730     6.9120     7.7140 hc         1 11G       0.040367
     29 H10         10.1870     8.3050    11.9170 h1         1 11G       0.078700
     30 H11          9.7020     9.3090     9.6660 hc         1 11G       0.053450
     31 H12         11.3820     9.1870     9.1700 hc         1 11G       0.053450
     32 H13         11.6670    11.3430    10.0610 hc         1 11G       0.046700
     33 H14         10.1440    11.2840    10.9400 hc         1 11G       0.046700
     34 H15         12.6490    11.0350    12.2370 hc         1 11G       0.046700
     35 H16         11.1490    10.3920    12.9020 hc         1 11G       0.046700
     36 H17         12.6090     8.3900    12.6900 hc         1 11G       0.053450
     37 H18         13.1460     8.9030    11.0770 hc         1 11G       0.053450
     38 H19          6.8960     6.4520     9.6440 h5         1 11G       0.049100
     39 H20          9.0820     2.9470     9.4810 h4         1 11G       0.026100
@<TRIPOS>BOND
     1     1     2 2   
     2     2     3 1   
     3     2     6 1   
     4     3     4 1   
     5     3     5 1   
     6     4    20 1   
     7     4    21 1   
     8     4    22 1   
     9     5    15 ar  
    10     5    19 ar  
    11     6     7 1   
    12     6     9 1   
    13     6    23 1   
    14     7     8 1   
    15     7    24 1   
    16     7    25 1   
    17     8    26 1   
    18     8    27 1   
    19     8    28 1   
    20     9    10 1   
    21     9    15 1   
    22    10    11 1   
    23    10    14 1   
    24    10    29 1   
    25    11    12 1   
    26    11    30 1   
    27    11    31 1   
    28    12    13 1   
    29    12    32 1   
    30    12    33 1   
    31    13    14 1   
    32    13    34 1   
    33    13    35 1   
    34    14    36 1   
    35    14    37 1   
    36    15    16 ar  
    37    16    17 ar  
    38    17    18 ar  
    39    17    38 1   
    40    18    19 ar  
    41    19    39 1   
@<TRIPOS>SUBSTRUCTURE
     1 11G         1 TEMP              0 ****  ****    0 ROOT
