@<TRIPOS>MOLECULE
11H
   30    32     1     0     0
SMALL
bcc


@<TRIPOS>ATOM
      1 O01          6.1910     0.9740    -0.4370 o          1 11H      -0.696200
      2 S02          5.4510    -0.1460     0.1640 s6         1 11H       1.268100
      3 O03          5.5800    -1.4090    -0.5790 o          1 11H      -0.696200
      4 O04          5.6680    -0.2900     1.6120 o          1 11H      -0.696200
      5 C05          3.7180     0.3090     0.0330 ca         1 11H      -0.219500
      6 C06          3.3520     1.6500     0.0020 ca         1 11H      -0.039500
      7 C07          2.0140     2.0000    -0.0310 ca         1 11H      -0.128000
      8 C08          1.0310     1.0170    -0.0290 ca         1 11H      -0.119100
      9 C09         -0.3950     1.4200    -0.0580 c          1 11H       0.592800
     10 O10         -0.7150     2.5890    -0.0980 o          1 11H      -0.540100
     11 C11         -1.4160     0.3450    -0.0330 ca         1 11H      -0.166600
     12 C12         -1.0460    -1.0020    -0.0080 ca         1 11H      -0.119100
     13 C13         -2.0330    -1.9840     0.0130 ca         1 11H      -0.128000
     14 C14         -3.3700    -1.6310     0.0140 ca         1 11H      -0.039500
     15 C15         -3.7340    -0.2880    -0.0100 ca         1 11H      -0.219500
     16 C16         -2.7620     0.6960    -0.0350 ca         1 11H      -0.005000
     17 S17         -5.4730     0.1580     0.0620 s6         1 11H       1.268100
     18 O18         -6.1530    -0.8150    -0.8050 o          1 11H      -0.696200
     19 O19         -5.8160     0.0180     1.4850 o          1 11H      -0.696200
     20 O20         -5.5400     1.5430    -0.4300 o          1 11H      -0.696200
     21 C21          0.3800    -1.4060    -0.0060 c          1 11H       0.592800
     22 O22          0.7000    -2.5750    -0.0010 o          1 11H      -0.540100
     23 C23          1.4010    -0.3310    -0.0020 ca         1 11H      -0.166600
     24 C24          2.7470    -0.6780     0.0280 ca         1 11H      -0.005000
     25 H1           4.1080     2.4240    -0.0050 ha         1 11H       0.143500
     26 H2           1.7350     3.0440    -0.0580 ha         1 11H       0.134000
     27 H3          -1.7560    -3.0290     0.0280 ha         1 11H       0.134000
     28 H4          -4.1250    -2.4050     0.0230 ha         1 11H       0.143500
     29 H5          -3.0430     1.7400    -0.0630 ha         1 11H       0.167000
     30 H6           3.0290    -1.7230     0.0410 ha         1 11H       0.167000
@<TRIPOS>BOND
     1     1     2 1   
     2     2     3 1   
     3     2     4 1   
     4     2     5 1   
     5     5     6 ar  
     6     5    24 ar  
     7     6     7 ar  
     8     6    25 1   
     9     7     8 ar  
    10     7    26 1   
    11     8     9 1   
    12     8    23 ar  
    13     9    10 2   
    14     9    11 1   
    15    11    12 ar  
    16    11    16 ar  
    17    12    13 ar  
    18    12    21 1   
    19    13    14 ar  
    20    13    27 1   
    21    14    15 ar  
    22    14    28 1   
    23    15    16 ar  
    24    15    17 1   
    25    16    29 1   
    26    17    18 1   
    27    17    19 1   
    28    17    20 1   
    29    21    22 2   
    30    21    23 1   
    31    23    24 ar  
    32    24    30 1   
@<TRIPOS>SUBSTRUCTURE
     1 11H         1 TEMP              0 ****  ****    0 ROOT
