@<TRIPOS>MOLECULE
11H
   30    32     1     0     0
SMALL
No Charge or Current Charge


@<TRIPOS>ATOM
      1 O01          6.2350     1.0040    -0.5510 o          1 11H      -0.696200
      2 S02          5.5860    -0.1600     0.0730 s6         1 11H       1.268100
      3 O03          5.5830    -1.4040    -0.7120 o          1 11H      -0.696200
      4 O04          5.8160    -0.3210     1.5170 o          1 11H      -0.696200
      5 C05          3.7990     0.3190     0.0470 ca         1 11H      -0.219500
      6 C06          3.4160     1.6740     0.0520 ca         1 11H      -0.021500
      7 C07          2.0570     2.0250     0.0410 ca         1 11H      -0.110000
      8 C08          1.0500     1.0340     0.0300 ca         1 11H      -0.119100
      9 C09         -0.4080     1.4400     0.0190 c          1 11H       0.592800
     10 O10         -0.7360     2.6230     0.0170 o          1 11H      -0.540100
     11 C11         -1.4470     0.3460     0.0100 ca         1 11H      -0.166600
     12 C12         -1.0680    -1.0190     0.0150 ca         1 11H      -0.119100
     13 C13         -2.0750    -2.0110     0.0120 ca         1 11H      -0.110000
     14 C14         -3.4340    -1.6590    -0.0010 ca         1 11H      -0.021500
     15 C15         -3.8170    -0.3050    -0.0150 ca         1 11H      -0.219500
     16 C16         -2.8190     0.6900    -0.0030 ca         1 11H       0.013000
     17 S17         -5.6050     0.1740    -0.0200 s6         1 11H       1.268100
     18 O18         -6.2420    -0.9910    -0.6520 o          1 11H      -0.696200
     19 O19         -5.8580     0.3390     1.4190 o          1 11H      -0.696200
     20 O20         -5.5880     1.4160    -0.8080 o          1 11H      -0.696200
     21 C21          0.3890    -1.4260     0.0290 c          1 11H       0.592800
     22 O22          0.7180    -2.6080     0.0360 o          1 11H      -0.540100
     23 C23          1.4290    -0.3320     0.0340 ca         1 11H      -0.166600
     24 C24          2.8010    -0.6750     0.0450 ca         1 11H       0.013000
     25 H1           4.1680     2.4590     0.0660 ha         1 11H       0.125500
     26 H2           1.7910     3.0800     0.0430 ha         1 11H       0.116000
     27 H3          -1.8090    -3.0650     0.0210 ha         1 11H       0.116000
     28 H4          -4.1870    -2.4450     0.0030 ha         1 11H       0.125500
     29 H5          -3.1160     1.7370    -0.0030 ha         1 11H       0.149000
     30 H6           3.0980    -1.7230     0.0530 ha         1 11H       0.149000
@<TRIPOS>BOND
     1     1     2 1   
     2     2     3 1   
     3     2     4 1   
     4     2     5 1   
     5     5     6 ar  
     6     5    24 ar  
     7     6     7 ar  
     8     6    25 1   
     9     7     8 ar  
    10     7    26 1   
    11     8     9 1   
    12     8    23 ar  
    13     9    10 2   
    14     9    11 1   
    15    11    12 ar  
    16    11    16 ar  
    17    12    13 ar  
    18    12    21 1   
    19    13    14 ar  
    20    13    27 1   
    21    14    15 ar  
    22    14    28 1   
    23    15    16 ar  
    24    15    17 1   
    25    16    29 1   
    26    17    18 1   
    27    17    19 1   
    28    17    20 1   
    29    21    22 2   
    30    21    23 1   
    31    23    24 ar  
    32    24    30 1   
@<TRIPOS>SUBSTRUCTURE
     1 11H         1 TEMP              0 ****  ****    0 ROOT
