@<TRIPOS>MOLECULE
11I
   59    61     1     0     0
SMALL
abcg2


@<TRIPOS>ATOM
      1 C1         -24.3110    20.4310   -50.6070 c3         1 11I       0.147900
      2 C3         -23.3070    22.5110   -50.2040 c          1 11I       0.589300
      3 C5         -23.5490    23.9100   -49.7050 ce         1 11I       0.156900
      4 C7         -22.5160    24.7840   -49.6230 cf         1 11I      -0.431200
      5 C8         -22.7520    26.1300   -49.1420 c          1 11I       0.603300
      6 C10        -21.6300    27.1620   -49.0980 c6         1 11I      -0.121000
      7 C11        -21.7530    28.0110   -50.3920 c3         1 11I      -0.024100
      8 C12        -21.5660    27.2620   -51.6810 ca         1 11I      -0.083300
      9 C13        -22.6490    26.6950   -52.3480 ca         1 11I      -0.097500
     10 C14        -22.4830    25.9940   -53.5330 ca         1 11I      -0.101500
     11 C15        -21.2100    25.8600   -54.0630 ca         1 11I       0.123000
     12 C17        -20.1110    26.4160   -53.4270 ca         1 11I      -0.101500
     13 C18        -20.3000    27.1150   -52.2440 ca         1 11I      -0.097500
     14 C19        -21.8270    28.0900   -47.8930 c6         1 11I      -0.067400
     15 C20        -21.5560    27.3860   -46.5730 c6         1 11I       0.164300
     16 C23        -19.7950    27.3600   -44.1790 ca         1 11I      -0.086300
     17 C24        -20.5200    27.2820   -42.9840 ca         1 11I      -0.069300
     18 C25        -21.4460    26.1360   -42.6880 c3         1 11I      -0.048800
     19 C26        -20.3750    28.3060   -42.0460 ca         1 11I      -0.115000
     20 C27        -19.5430    29.3900   -42.2740 ca         1 11I      -0.105000
     21 C28        -18.8280    29.4660   -43.4620 ca         1 11I      -0.119000
     22 C29        -18.9610    28.4550   -44.4010 ca         1 11I      -0.086000
     23 C30        -20.0100    25.8960   -47.6120 c6         1 11I       0.164300
     24 C31        -20.2350    26.5430   -48.9710 c6         1 11I      -0.067400
     25 N21        -20.2070    26.8540   -46.5430 n3         1 11I      -0.722600
     26 O2         -24.4020    21.7890   -50.1680 os         1 11I      -0.407100
     27 O4         -22.2290    22.1300   -50.5780 o          1 11I      -0.463000
     28 O6         -24.7880    24.1830   -49.3750 oh         1 11I      -0.519100
     29 O9         -23.8940    26.4710   -48.8150 o          1 11I      -0.595100
     30 CL1        -20.9880    24.9960   -55.5510 cl         1 11I      -0.204000
     31 H1         -25.3070    20.0150   -50.4910 h1         1 11I       0.053700
     32 H2         -24.0120    20.3750   -51.6530 h1         1 11I       0.053700
     33 H3         -23.6060    19.8670   -49.9970 h1         1 11I       0.053700
     34 H4         -21.5340    24.4630   -49.9270 ha         1 11I       0.227000
     35 H5         -21.0040    28.8040   -50.3210 hc         1 11I       0.060700
     36 H6         -22.7290    28.5040   -50.3900 hc         1 11I       0.060700
     37 H7         -23.6490    26.8060   -51.9450 ha         1 11I       0.117500
     38 H8         -23.3380    25.5650   -54.0380 ha         1 11I       0.130000
     39 H9         -19.1200    26.3150   -53.8490 ha         1 11I       0.130000
     40 H10        -19.4410    27.5580   -51.7550 ha         1 11I       0.117500
     41 H11        -21.1270    28.9250   -47.9900 hc         1 11I       0.057950
     42 H12        -22.8300    28.5170   -47.8890 hc         1 11I       0.057950
     43 H13        -21.6760    28.1050   -45.7600 h1         1 11I       0.037700
     44 H14        -22.3050    26.5930   -46.3990 h1         1 11I       0.037700
     45 H15        -20.5720    25.4970   -44.9570 h1         1 11I       0.038700
     46 H16        -18.8920    25.8170   -45.3330 h1         1 11I       0.038700
     47 H17        -20.9170    25.1820   -42.6510 hc         1 11I       0.041700
     48 H18        -21.9390    26.2750   -41.7270 hc         1 11I       0.041700
     49 H19        -22.2240    26.0390   -43.4470 hc         1 11I       0.041700
     50 H20        -20.9350    28.2510   -41.1190 ha         1 11I       0.109000
     51 H21        -19.4520    30.1700   -41.5290 ha         1 11I       0.111000
     52 H22        -18.1720    30.3050   -43.6560 ha         1 11I       0.112000
     53 H23        -18.4110    28.5130   -45.3320 ha         1 11I       0.122000
     54 H24        -20.6710    25.0180   -47.5000 h1         1 11I       0.037700
     55 H25        -18.9850    25.5190   -47.5630 h1         1 11I       0.037700
     56 H26        -20.0330    25.8160   -49.7590 hc         1 11I       0.057950
     57 H27        -19.5000    27.3430   -49.1050 hc         1 11I       0.057950
     58 H29        -24.7840    25.1340   -49.0720 ho         1 11I       0.527000
     59 C22        -19.8730    26.2950   -45.2470 c3         1 11I       0.214100
@<TRIPOS>BOND
     1     1    26 1   
     2     1    31 1   
     3     1    32 1   
     4     1    33 1   
     5     2     3 1   
     6     2    26 1   
     7     2    27 2   
     8     3     4 2   
     9     3    28 1   
    10     4     5 1   
    11     4    34 1   
    12     5     6 1   
    13     5    29 2   
    14     6     7 1   
    15     6    14 1   
    16     6    24 1   
    17     7     8 1   
    18     7    35 1   
    19     7    36 1   
    20     8     9 ar  
    21     8    13 ar  
    22     9    10 ar  
    23     9    37 1   
    24    10    11 ar  
    25    10    38 1   
    26    11    12 ar  
    27    11    30 1   
    28    12    13 ar  
    29    12    39 1   
    30    13    40 1   
    31    14    15 1   
    32    14    41 1   
    33    14    42 1   
    34    15    25 1   
    35    15    43 1   
    36    15    44 1   
    37    16    17 ar  
    38    16    22 ar  
    39    16    59 1   
    40    17    18 1   
    41    17    19 ar  
    42    18    47 1   
    43    18    48 1   
    44    18    49 1   
    45    19    20 ar  
    46    19    50 1   
    47    20    21 ar  
    48    20    51 1   
    49    21    22 ar  
    50    21    52 1   
    51    22    53 1   
    52    23    24 1   
    53    23    25 1   
    54    23    54 1   
    55    23    55 1   
    56    24    56 1   
    57    24    57 1   
    58    25    59 1   
    59    28    58 1   
    60    45    59 1   
    61    46    59 1   
@<TRIPOS>SUBSTRUCTURE
     1 11I         1 TEMP              0 ****  ****    0 ROOT
