@<TRIPOS>MOLECULE
11I
   59    61     1     0     0
SMALL
No Charge or Current Charge


@<TRIPOS>ATOM
      1 C1         -24.2910    20.1650   -49.5040 c3         1 11I       0.147900
      2 C3         -23.2940    22.3670   -49.4370 c          1 11I       0.589300
      3 C5         -23.5880    23.8680   -49.3930 ce         1 11I       0.156900
      4 C7         -22.6070    24.8210   -49.3660 cf         1 11I      -0.431200
      5 C8         -22.8350    26.2960   -49.3390 c          1 11I       0.603300
      6 C10        -21.6430    27.3180   -49.2850 c6         1 11I      -0.121000
      7 C11        -21.7620    28.2460   -50.5490 c3         1 11I      -0.024100
      8 C12        -21.5570    27.5320   -51.8850 ca         1 11I      -0.083300
      9 C13        -22.6490    26.9460   -52.5580 ca         1 11I      -0.097500
     10 C14        -22.4570    26.2850   -53.7840 ca         1 11I      -0.101500
     11 C15        -21.1730    26.2120   -54.3480 ca         1 11I       0.123000
     12 C17        -20.0820    26.8030   -53.6920 ca         1 11I      -0.101500
     13 C18        -20.2740    27.4640   -52.4660 ca         1 11I      -0.097500
     14 C19        -21.7730    28.1780   -47.9850 c6         1 11I      -0.067400
     15 C20        -21.4790    27.3810   -46.6950 c6         1 11I       0.164300
     16 C23        -19.7270    27.1690   -44.2320 ca         1 11I      -0.086300
     17 C24        -20.6810    27.0440   -43.1870 ca         1 11I      -0.069300
     18 C25        -21.7430    25.9470   -43.1950 c3         1 11I      -0.048800
     19 C26        -20.6530    27.9550   -42.1110 ca         1 11I      -0.115000
     20 C27        -19.6950    28.9810   -42.0650 ca         1 11I      -0.105000
     21 C28        -18.7550    29.1060   -43.0970 ca         1 11I      -0.119000
     22 C29        -18.7730    28.2050   -44.1730 ca         1 11I      -0.086000
     23 C30        -19.8590    25.9820   -47.8780 c6         1 11I       0.164300
     24 C31        -20.2030    26.6830   -49.2270 c6         1 11I      -0.067400
     25 N21        -20.0860    26.8660   -46.7090 n3         1 11I      -0.722600
     26 O2         -24.4360    21.5970   -49.4610 os         1 11I      -0.407100
     27 O4         -22.1620    21.8950   -49.4500 o          1 11I      -0.463000
     28 O6         -24.8960    24.2530   -49.3820 oh         1 11I      -0.519100
     29 O9         -23.9860    26.6990   -49.4740 o          1 11I      -0.595100
     30 Cl1        -20.9330    25.3850   -55.8810 cl         1 11I      -0.204000
     31 H1         -25.2760    19.6820   -49.5190 h1         1 11I       0.053700
     32 H2         -23.7450    19.8540   -50.4040 h1         1 11I       0.053700
     33 H3         -23.7470    19.8000   -48.6230 h1         1 11I       0.053700
     34 H4         -21.5840    24.4640   -49.4040 ha         1 11I       0.227000
     35 H5         -21.0310    29.0610   -50.4720 hc         1 11I       0.060700
     36 H6         -22.7350    28.7530   -50.5540 hc         1 11I       0.060700
     37 H7         -23.6490    27.0030   -52.1340 ha         1 11I       0.117500
     38 H8         -23.3010    25.8320   -54.2970 ha         1 11I       0.130000
     39 H9         -19.0900    26.7490   -54.1320 ha         1 11I       0.130000
     40 H10        -19.4220    27.9200   -51.9650 ha         1 11I       0.117500
     41 H11        -21.0810    29.0310   -48.0300 hc         1 11I       0.057950
     42 H12        -22.7790    28.6150   -47.9180 hc         1 11I       0.057950
     43 H13        -21.6340    28.0510   -45.8370 h1         1 11I       0.037700
     44 H14        -22.1990    26.5550   -46.5960 h1         1 11I       0.037700
     45 H15        -20.3190    25.3390   -45.2530 h1         1 11I       0.038700
     46 H16        -18.6620    25.8450   -45.5230 h1         1 11I       0.038700
     47 H17        -21.2840    24.9540   -43.1320 hc         1 11I       0.041700
     48 H18        -22.4330    26.0410   -42.3470 hc         1 11I       0.041700
     49 H19        -22.3480    25.9860   -44.1090 hc         1 11I       0.041700
     50 H20        -21.3770    27.8700   -41.3040 ha         1 11I       0.109000
     51 H21        -19.6840    29.6780   -41.2300 ha         1 11I       0.111000
     52 H22        -18.0130    29.9010   -43.0650 ha         1 11I       0.112000
     53 H23        -18.0430    28.3110   -44.9730 ha         1 11I       0.122000
     54 H24        -20.4470    25.0630   -47.7560 h1         1 11I       0.037700
     55 H25        -18.8040    25.6720   -47.9120 h1         1 11I       0.037700
     56 H26        -20.0480    25.9820   -50.0570 hc         1 11I       0.057950
     57 H27        -19.4590    27.4770   -49.3800 hc         1 11I       0.057950
     58 H29        -24.8470    25.2440   -49.4110 ho         1 11I       0.527000
     59 C22        -19.6910    26.2200   -45.4350 c3         1 11I       0.214100
@<TRIPOS>BOND
     1     1    26 1   
     2     1    31 1   
     3     1    32 1   
     4     1    33 1   
     5     2     3 1   
     6     2    26 1   
     7     2    27 2   
     8     3     4 2   
     9     3    28 1   
    10     4     5 1   
    11     4    34 1   
    12     5     6 1   
    13     5    29 2   
    14     6     7 1   
    15     6    14 1   
    16     6    24 1   
    17     7     8 1   
    18     7    35 1   
    19     7    36 1   
    20     8     9 ar  
    21     8    13 ar  
    22     9    10 ar  
    23     9    37 1   
    24    10    11 ar  
    25    10    38 1   
    26    11    12 ar  
    27    11    30 1   
    28    12    13 ar  
    29    12    39 1   
    30    13    40 1   
    31    14    15 1   
    32    14    41 1   
    33    14    42 1   
    34    15    25 1   
    35    15    43 1   
    36    15    44 1   
    37    16    17 ar  
    38    16    22 ar  
    39    16    59 1   
    40    17    18 1   
    41    17    19 ar  
    42    18    47 1   
    43    18    48 1   
    44    18    49 1   
    45    19    20 ar  
    46    19    50 1   
    47    20    21 ar  
    48    20    51 1   
    49    21    22 ar  
    50    21    52 1   
    51    22    53 1   
    52    23    24 1   
    53    23    25 1   
    54    23    54 1   
    55    23    55 1   
    56    24    56 1   
    57    24    57 1   
    58    25    59 1   
    59    28    58 1   
    60    45    59 1   
    61    46    59 1   
@<TRIPOS>SUBSTRUCTURE
     1 11I         1 TEMP              0 ****  ****    0 ROOT
