@<TRIPOS>MOLECULE
11J
   36    38     1     0     0
SMALL
No Charge or Current Charge


@<TRIPOS>ATOM
      1 I           -4.3990     0.8050    -0.1000 i          1 11J      -0.283000
      2 N            0.2140    -0.3370    -0.4170 ns         1 11J      -0.141000
      3 O           -1.4940     0.8650    -1.3760 o          1 11J      -0.552100
      4 C1          -3.4140    -1.1390    -0.2500 ca         1 11J       0.236000
      5 C2          -2.0270    -1.3110    -0.5050 ca         1 11J      -0.127600
      6 C3          -1.5010    -2.6310    -0.4990 ca         1 11J      -0.094000
      7 C4          -2.3290    -3.7380    -0.2550 ca         1 11J      -0.100000
      8 C5          -3.6960    -3.5540    -0.0100 ca         1 11J      -0.094000
      9 C6          -4.2310    -2.2570    -0.0050 ca         1 11J      -0.088000
     10 C7          -1.1110    -0.1410    -0.7910 c          1 11J       0.618700
     11 C8           1.3730     0.4840    -0.5140 ca         1 11J      -0.021000
     12 C9           2.6110    -0.1000    -0.1840 ca         1 11J      -0.158000
     13 C10          3.8240     0.6310    -0.2460 cp         1 11J      -0.005000
     14 C11          3.7570     1.9850    -0.6510 ca         1 11J      -0.125000
     15 C12          2.5290     2.5830    -0.9750 ca         1 11J      -0.086000
     16 C13          1.3400     1.8390    -0.9060 ca         1 11J      -0.128000
     17 C14          5.1330    -0.0090     0.1050 cp         1 11J      -0.037000
     18 C15          6.3260     0.3400    -0.5790 ca         1 11J      -0.099000
     19 C16          7.5540    -0.2600    -0.2510 ca         1 11J      -0.111500
     20 C17          7.6170    -1.2210     0.7700 ca         1 11J      -0.106000
     21 C18          6.4500    -1.5820     1.4620 ca         1 11J      -0.111500
     22 C19          5.2220    -0.9830     1.1330 ca         1 11J      -0.099000
     23 HN           0.3870    -1.2290     0.0270 hn         1 11J       0.155000
     24 H3          -0.4490    -2.8160    -0.7070 ha         1 11J       0.122000
     25 H4          -1.9100    -4.7430    -0.2620 ha         1 11J       0.122000
     26 H5          -4.3380    -4.4110     0.1810 ha         1 11J       0.121000
     27 H6          -5.2890    -2.1130     0.2000 ha         1 11J       0.132000
     28 H9           2.6360    -1.1460     0.1100 ha         1 11J       0.111000
     29 H11          4.6620     2.5850    -0.6990 ha         1 11J       0.118000
     30 H12          2.4980     3.6280    -1.2750 ha         1 11J       0.116000
     31 H13          0.4080     2.3380    -1.1530 ha         1 11J       0.149000
     32 H15          6.2980     1.0720    -1.3830 ha         1 11J       0.114000
     33 H16          8.4570     0.0190    -0.7910 ha         1 11J       0.113000
     34 H17          8.5670    -1.6850     1.0250 ha         1 11J       0.113000
     35 H18          6.4960    -2.3240     2.2570 ha         1 11J       0.113000
     36 H19          4.3330    -1.2670     1.6900 ha         1 11J       0.114000
@<TRIPOS>BOND
     1     1     4 1   
     2     2    10 1   
     3     2    11 1   
     4     2    23 1   
     5     3    10 2   
     6     4     5 ar  
     7     4     9 ar  
     8     5     6 ar  
     9     5    10 1   
    10     6     7 ar  
    11     6    24 1   
    12     7     8 ar  
    13     7    25 1   
    14     8     9 ar  
    15     8    26 1   
    16     9    27 1   
    17    11    12 ar  
    18    11    16 ar  
    19    12    13 ar  
    20    12    28 1   
    21    13    14 ar  
    22    13    17 1   
    23    14    15 ar  
    24    14    29 1   
    25    15    16 ar  
    26    15    30 1   
    27    16    31 1   
    28    17    18 ar  
    29    17    22 ar  
    30    18    19 ar  
    31    18    32 1   
    32    19    20 ar  
    33    19    33 1   
    34    20    21 ar  
    35    20    34 1   
    36    21    22 ar  
    37    21    35 1   
    38    22    36 1   
@<TRIPOS>SUBSTRUCTURE
     1 11J         1 TEMP              0 ****  ****    0 ROOT
