@<TRIPOS>MOLECULE
11J
   36    38     1     0     0
SMALL
abcg2


@<TRIPOS>ATOM
      1 I           -3.5720     0.5430     1.3810 i          1 11J      -0.283000
      2 N            0.2610    -0.4030    -0.4300 ns         1 11J      -0.141000
      3 O           -1.4600     0.9090    -1.1510 o          1 11J      -0.552100
      4 C1          -3.0920    -1.2130     0.3210 ca         1 11J       0.236000
      5 C2          -1.9440    -1.3090    -0.4620 ca         1 11J      -0.127600
      6 C3          -1.6660    -2.5210    -1.0930 ca         1 11J      -0.094000
      7 C4          -2.5150    -3.6080    -0.9580 ca         1 11J      -0.100000
      8 C5          -3.6510    -3.4960    -0.1720 ca         1 11J      -0.094000
      9 C6          -3.9390    -2.3020     0.4750 ca         1 11J      -0.088000
     10 C7          -1.0370    -0.1430    -0.7140 c          1 11J       0.618700
     11 C8           1.3850     0.4150    -0.5980 ca         1 11J      -0.021000
     12 C9           2.6020    -0.1150    -0.1670 ca         1 11J      -0.158000
     13 C10          3.7890     0.5980    -0.2920 cp         1 11J      -0.005000
     14 C11          3.7490     1.8700    -0.8650 ca         1 11J      -0.125000
     15 C12          2.5420     2.3960    -1.2930 ca         1 11J      -0.086000
     16 C13          1.3550     1.6870    -1.1690 ca         1 11J      -0.128000
     17 C14          5.0650     0.0130     0.1710 cp         1 11J      -0.037000
     18 C15          6.2480     0.2370    -0.5360 ca         1 11J      -0.099000
     19 C16          7.4470    -0.3140    -0.1060 ca         1 11J      -0.111500
     20 C17          7.4850    -1.0990     1.0390 ca         1 11J      -0.106000
     21 C18          6.3150    -1.3270     1.7510 ca         1 11J      -0.111500
     22 C19          5.1170    -0.7750     1.3210 ca         1 11J      -0.099000
     23 HN           0.4510    -1.3010    -0.0100 hn         1 11J       0.155000
     24 H3          -0.7830    -2.6080    -1.7140 ha         1 11J       0.122000
     25 H4          -2.2880    -4.5360    -1.4650 ha         1 11J       0.122000
     26 H5          -4.3200    -4.3380    -0.0510 ha         1 11J       0.121000
     27 H6          -4.8210    -2.2320     1.0960 ha         1 11J       0.132000
     28 H9           2.6210    -1.1130     0.2560 ha         1 11J       0.111000
     29 H11          4.6540     2.4560    -0.9560 ha         1 11J       0.118000
     30 H12          2.5160     3.3850    -1.7300 ha         1 11J       0.116000
     31 H13          0.4330     2.1270    -1.5100 ha         1 11J       0.149000
     32 H15          6.2320     0.8310    -1.4420 ha         1 11J       0.114000
     33 H16          8.3510    -0.1350    -0.6720 ha         1 11J       0.113000
     34 H17          8.4200    -1.5290     1.3730 ha         1 11J       0.113000
     35 H18          6.3340    -1.9300     2.6500 ha         1 11J       0.113000
     36 H19          4.2170    -0.9450     1.8990 ha         1 11J       0.114000
@<TRIPOS>BOND
     1     1     4 1   
     2     2    10 1   
     3     2    11 1   
     4     2    23 1   
     5     3    10 2   
     6     4     5 ar  
     7     4     9 ar  
     8     5     6 ar  
     9     5    10 1   
    10     6     7 ar  
    11     6    24 1   
    12     7     8 ar  
    13     7    25 1   
    14     8     9 ar  
    15     8    26 1   
    16     9    27 1   
    17    11    12 ar  
    18    11    16 ar  
    19    12    13 ar  
    20    12    28 1   
    21    13    14 ar  
    22    13    17 1   
    23    14    15 ar  
    24    14    29 1   
    25    15    16 ar  
    26    15    30 1   
    27    16    31 1   
    28    17    18 ar  
    29    17    22 ar  
    30    18    19 ar  
    31    18    32 1   
    32    19    20 ar  
    33    19    33 1   
    34    20    21 ar  
    35    20    34 1   
    36    21    22 ar  
    37    21    35 1   
    38    22    36 1   
@<TRIPOS>SUBSTRUCTURE
     1 11J         1 TEMP              0 ****  ****    0 ROOT
