@<TRIPOS>MOLECULE
11K
   52    55     1     0     0
SMALL
bcc


@<TRIPOS>ATOM
      1 N1           6.9000     0.3410     0.1140 na         1 11K      -0.005600
      2 N2           5.9480     1.2800     0.1420 nc         1 11K      -0.581800
      3 N3           3.6310     1.3300     0.0690 ns         1 11K      -0.547400
      4 N4          -6.9090    -0.5250    -0.3790 n3         1 11K      -0.718600
      5 OAA          2.1360    -0.3680    -0.0130 o          1 11K      -0.565100
      6 CAB         -0.7430     0.9080     1.1550 ca         1 11K      -0.071500
      7 CAC         -0.7410     1.1250    -1.2160 ca         1 11K      -0.071500
      8 CAD         -2.0010     0.3390     1.1110 ca         1 11K      -0.191500
      9 CAE         -2.0080     0.5550    -1.2840 ca         1 11K      -0.191500
     10 CAF          5.0380    -0.7810    -0.0110 cd         1 11K      -0.302300
     11 CAG         -8.0620     0.3880     1.4660 c5         1 11K      -0.080400
     12 CAH         -9.0660    -0.2700     0.4980 c5         1 11K      -0.080400
     13 CAI         -4.5810    -0.6300    -1.2680 c3         1 11K       0.140400
     14 CAJ          8.4970    -2.2560     0.7790 cx         1 11K      -0.124400
     15 CAK          8.5750    -2.1410    -0.7060 cx         1 11K      -0.124400
     16 CAL         -6.6870    -0.1070     0.9980 c5         1 11K       0.159300
     17 CAM         -8.2000    -1.1930    -0.3520 c5         1 11K       0.159300
     18 CAN         -5.8780    -1.3480    -0.9670 c3         1 11K       0.170800
     19 CAO          1.2930     1.8900     0.0490 c3         1 11K      -0.104100
     20 OAS         -3.8600    -0.4270    -0.0630 os         1 11K      -0.328900
     21 CAT          2.3760     0.8230     0.0310 c          1 11K       0.674100
     22 CAU         -0.0860     1.3090    -0.0070 ca         1 11K      -0.112300
     23 CAV         -2.6450     0.1490    -0.1140 ca         1 11K       0.154100
     24 CAW          4.8170     0.6080     0.0660 cd         1 11K       0.452200
     25 CAX          6.4130    -0.9070     0.0240 cc         1 11K      -0.043600
     26 CAY          7.2310    -2.1250    -0.0270 cx         1 11K      -0.069400
     27 HN3          3.7370     2.3330     0.1090 hn         1 11K       0.328500
     28 HAB         -0.2640     1.0470     2.1180 ha         1 11K       0.128500
     29 HAC         -0.2620     1.4290    -2.1390 ha         1 11K       0.128500
     30 HAD         -2.4960     0.0370     2.0260 ha         1 11K       0.139500
     31 HAE         -2.4730     0.4340    -2.2520 ha         1 11K       0.139500
     32 HAF          4.3200    -1.5770    -0.0790 ha         1 11K       0.187000
     33 HAG         -8.1260     1.4750     1.4140 hc         1 11K       0.045950
     34 HAGA        -8.2420     0.1070     2.5040 hc         1 11K       0.045950
     35 HAH         -9.8550    -0.8170     1.0130 hc         1 11K       0.045950
     36 HAHA        -9.5480     0.4820    -0.1270 hc         1 11K       0.045950
     37 HAI         -3.9930    -1.2460    -1.9580 h1         1 11K       0.043200
     38 HAIA        -4.7880     0.3260    -1.7620 h1         1 11K       0.043200
     39 HAJ          8.6960    -3.2180     1.2330 hc         1 11K       0.074950
     40 HAJA         8.8100    -1.4100     1.3780 hc         1 11K       0.074950
     41 HAK          8.9410    -1.2140    -1.1300 hc         1 11K       0.074950
     42 HAKA         8.8290    -3.0210    -1.2810 hc         1 11K       0.074950
     43 HAL         -6.3520    -0.9520     1.6230 h1         1 11K       0.038200
     44 HALA        -5.9230     0.6660     1.0670 h1         1 11K       0.038200
     45 HAM         -8.5850    -1.3390    -1.3650 h1         1 11K       0.038200
     46 HAMA        -8.1320    -2.1890     0.1180 h1         1 11K       0.038200
     47 HAN         -5.6600    -2.2470    -0.3630 h1         1 11K       0.041200
     48 HANA        -6.2530    -1.7100    -1.9280 h1         1 11K       0.041200
     49 HAO          1.4210     2.4960     0.9520 hc         1 11K       0.064200
     50 HAOA         1.4620     2.5710    -0.7900 hc         1 11K       0.064200
     51 HAY          6.6350    -3.0230    -0.1260 hc         1 11K       0.100700
     52 HN1          7.8650     0.6260     0.1610 hn         1 11K       0.319700
@<TRIPOS>BOND
     1     1     2 1   
     2     1    25 1   
     3     1    52 1   
     4     2    24 2   
     5     3    21 1   
     6     3    24 1   
     7     3    27 1   
     8     4    16 1   
     9     4    17 1   
    10     4    18 1   
    11     5    21 2   
    12     6     8 ar  
    13     6    22 ar  
    14     6    28 1   
    15     7     9 ar  
    16     7    22 ar  
    17     7    29 1   
    18     8    23 ar  
    19     8    30 1   
    20     9    23 ar  
    21     9    31 1   
    22    10    24 1   
    23    10    25 2   
    24    10    32 1   
    25    11    12 1   
    26    11    16 1   
    27    11    33 1   
    28    11    34 1   
    29    12    17 1   
    30    12    35 1   
    31    12    36 1   
    32    13    18 1   
    33    13    20 1   
    34    13    37 1   
    35    13    38 1   
    36    14    15 1   
    37    14    26 1   
    38    14    39 1   
    39    14    40 1   
    40    15    26 1   
    41    15    41 1   
    42    15    42 1   
    43    16    43 1   
    44    16    44 1   
    45    17    45 1   
    46    17    46 1   
    47    18    47 1   
    48    18    48 1   
    49    19    21 1   
    50    19    22 1   
    51    19    49 1   
    52    19    50 1   
    53    20    23 1   
    54    25    26 1   
    55    26    51 1   
@<TRIPOS>SUBSTRUCTURE
     1 11K         1 TEMP              0 ****  ****    0 ROOT
