@<TRIPOS>MOLECULE
11K
   52    55     1     0     0
SMALL
No Charge or Current Charge


@<TRIPOS>ATOM
      1 N1           6.0590     0.0650    -1.2280 na         1 11K      -0.005200
      2 N2           5.0220     0.9810    -1.1080 nc         1 11K      -0.581800
      3 N3           3.2840     1.2150     0.4380 ns         1 11K      -0.480400
      4 N4          -6.6410    -0.4650    -0.8620 n3         1 11K      -0.718600
      5 OAA          2.6950     0.0040     2.2950 o          1 11K      -0.565100
      6 CAB         -0.7620     0.4840     2.1090 ca         1 11K      -0.053500
      7 CAC         -0.4180     1.4700    -0.0870 ca         1 11K      -0.053500
      8 CAD         -1.9580    -0.0980     1.6570 ca         1 11K      -0.173500
      9 CAE         -1.6150     0.8860    -0.5390 ca         1 11K      -0.173500
     10 CAF          4.9960    -0.5760     0.5320 cd         1 11K      -0.219000
     11 CAG         -8.0100     0.2780     0.9180 c5         1 11K      -0.080400
     12 CAH         -8.8860    -0.2710    -0.2530 c5         1 11K      -0.080400
     13 CAI         -4.1150    -0.3470    -1.3770 c3         1 11K       0.163600
     14 CAJ          8.4890    -1.8290    -0.4300 cx         1 11K      -0.124400
     15 CAK          7.6100    -2.7130    -1.2840 cx         1 11K      -0.124400
     16 CAL         -6.5810    -0.2460     0.6010 c5         1 11K       0.159300
     17 CAM         -7.9140    -1.1920    -1.0310 c5         1 11K       0.159300
     18 CAN         -5.4550    -1.1250    -1.4770 c3         1 11K       0.170800
     19 CAO          1.3170     1.9020     1.7270 c3         1 11K      -0.104100
     20 OAS         -3.5730    -0.5000    -0.0480 os         1 11K      -0.352100
     21 CAT          2.4970     0.9390     1.5330 c          1 11K       0.607100
     22 CAU          0.0140     1.2730     1.2390 ca         1 11K      -0.112300
     23 CAV         -2.3910     0.0970     0.3370 ca         1 11K       0.154100
     24 CAW          4.3950     0.5670    -0.0340 cd         1 11K       0.386900
     25 CAX          6.0780    -0.9150    -0.2310 cc         1 11K      -0.094300
     26 CAY          7.0350    -2.0260    -0.0660 cx         1 11K      -0.069400
     27 HN3          2.9810     2.0190    -0.0910 hn         1 11K       0.328500
     28 HAB         -0.4380     0.3200     3.1350 ha         1 11K       0.110500
     29 HAC          0.1730     2.0750    -0.7710 ha         1 11K       0.110500
     30 HAD         -2.5530    -0.7060     2.3340 ha         1 11K       0.121500
     31 HAE         -1.9210     1.0570    -1.5670 ha         1 11K       0.121500
     32 HAF          4.6730    -1.1090     1.4160 ha         1 11K       0.169000
     33 HAG         -8.0340     1.3730     0.9420 hc         1 11K       0.045950
     34 HAGA        -8.3550    -0.0740     1.8970 hc         1 11K       0.045950
     35 HAH         -9.7710    -0.8130     0.1000 hc         1 11K       0.045950
     36 HAHA        -9.2400     0.5470    -0.8900 hc         1 11K       0.045950
     37 HAI         -3.4160    -0.7580    -2.1160 h1         1 11K       0.043200
     38 HAIA        -4.2890     0.7100    -1.6160 h1         1 11K       0.043200
     39 HAJ          9.2360    -2.3110     0.1960 hc         1 11K       0.074950
     40 HAJA         8.7940    -0.8680    -0.8380 hc         1 11K       0.074950
     41 HAK          7.3220    -2.3480    -2.2670 hc         1 11K       0.074950
     42 HAKA         7.7670    -3.7880    -1.2290 hc         1 11K       0.074950
     43 HAL         -6.3810    -1.1860     1.1350 h1         1 11K       0.038200
     44 HALA        -5.8110     0.4820     0.8920 h1         1 11K       0.038200
     45 HAM         -8.2040    -1.2990    -2.0860 h1         1 11K       0.038200
     46 HAMA        -7.8680    -2.1950    -0.5820 h1         1 11K       0.038200
     47 HAN         -5.3100    -2.1240    -1.0430 h1         1 11K       0.041200
     48 HANA        -5.6580    -1.2760    -2.5460 h1         1 11K       0.041200
     49 HAO          1.2320     2.1370     2.7950 hc         1 11K       0.064200
     50 HAOA         1.4980     2.8290     1.1700 hc         1 11K       0.064200
     51 HAY          6.8240    -2.6520     0.8000 hc         1 11K       0.100700
     52 HN1          6.7310     0.1340    -1.9910 hn         1 11K       0.370000
@<TRIPOS>BOND
     1     1     2 1   
     2     1    25 1   
     3     1    52 1   
     4     2    24 2   
     5     3    21 1   
     6     3    24 1   
     7     3    27 1   
     8     4    16 1   
     9     4    17 1   
    10     4    18 1   
    11     5    21 2   
    12     6     8 ar  
    13     6    22 ar  
    14     6    28 1   
    15     7     9 ar  
    16     7    22 ar  
    17     7    29 1   
    18     8    23 ar  
    19     8    30 1   
    20     9    23 ar  
    21     9    31 1   
    22    10    24 1   
    23    10    25 2   
    24    10    32 1   
    25    11    12 1   
    26    11    16 1   
    27    11    33 1   
    28    11    34 1   
    29    12    17 1   
    30    12    35 1   
    31    12    36 1   
    32    13    18 1   
    33    13    20 1   
    34    13    37 1   
    35    13    38 1   
    36    14    15 1   
    37    14    26 1   
    38    14    39 1   
    39    14    40 1   
    40    15    26 1   
    41    15    41 1   
    42    15    42 1   
    43    16    43 1   
    44    16    44 1   
    45    17    45 1   
    46    17    46 1   
    47    18    47 1   
    48    18    48 1   
    49    19    21 1   
    50    19    22 1   
    51    19    49 1   
    52    19    50 1   
    53    20    23 1   
    54    25    26 1   
    55    26    51 1   
@<TRIPOS>SUBSTRUCTURE
     1 11K         1 TEMP              0 ****  ****    0 ROOT
