@<TRIPOS>MOLECULE
11M
   53    57     1     0     0
SMALL
bcc


@<TRIPOS>ATOM
      1 C4          -5.8430    -1.3450    -0.9840 ca         1 11M      -0.159000
      2 C5          -6.1730    -0.0600    -1.4190 ca         1 11M      -0.092000
      3 C6          -5.3640     1.0410    -1.1580 ca         1 11M      -0.124300
      4 C8          -3.0980    -2.3370     1.0870 c5         1 11M       0.126400
      5 C10         -1.4310    -0.9710    -0.2820 c6         1 11M      -0.091900
      6 C13         -0.8990    -0.6030     2.5230 c6         1 11M       0.090500
      7 C15         -2.6100    -0.9210     0.7040 c5         1 11M      -0.018700
      8 C22          4.3640    -0.3780    -0.3710 cc         1 11M      -0.021800
      9 C24          4.8980     1.8880    -1.3410 ca         1 11M      -0.095000
     10 C26          3.2760     3.6140    -0.8390 ca         1 11M      -0.120000
     11 C1          -4.1800     0.8530    -0.4350 ca         1 11M      -0.042000
     12 C2          -3.8400    -0.4100     0.0000 ca         1 11M      -0.174300
     13 C3          -4.6680    -1.4900    -0.2750 ca         1 11M       0.128100
     14 O13         -4.1870    -2.6570     0.2090 os         1 11M      -0.308900
     15 C11         -0.1260    -1.4120     0.3740 c6         1 11M       0.090500
     16 N22          0.1720    -0.5880     1.5380 n          1 11M      -0.474800
     17 C14         -2.2090    -0.1010     1.9310 c6         1 11M      -0.091900
     18 O61          0.8580     1.4670     2.2130 o          1 11M      -0.581100
     19 C30         -5.7530     2.4180    -1.6240 c3         1 11M       0.201100
     20 N64         -5.9820     3.3040    -0.4890 n8         1 11M      -0.884800
     21 C39          2.2270     0.3690     0.6720 cc         1 11M      -0.211600
     22 C41          2.8880     1.4020     0.0210 ca         1 11M       0.016000
     23 C42          4.1070     0.9710    -0.5990 ca         1 11M      -0.057000
     24 S44          3.1290    -1.0870     0.5560 ss         1 11M       0.103800
     25 C25          4.4860     3.1790    -1.4540 ca         1 11M      -0.132000
     26 C27          2.4930     2.7630    -0.1210 ca         1 11M      -0.102000
     27 C29          5.4070    -2.9260    -0.4620 c3         1 11M      -0.051000
     28 H4          -6.4880    -2.1880    -1.1960 ha         1 11M       0.148000
     29 H5          -7.0920     0.0810    -1.9760 ha         1 11M       0.128000
     30 H8          -2.3380    -3.1120     0.9800 h1         1 11M       0.057200
     31 H8A         -3.4640    -2.3550     2.1190 h1         1 11M       0.057200
     32 H10         -1.6570    -1.6490    -1.1090 hc         1 11M       0.061950
     33 H10A        -1.2900     0.0230    -0.7170 hc         1 11M       0.061950
     34 H13         -1.0070    -1.6340     2.8750 h1         1 11M       0.057450
     35 H13A        -0.6100    -0.0060     3.3840 h1         1 11M       0.057450
     36 H24          5.8160     1.5610    -1.8130 ha         1 11M       0.139000
     37 H26          2.9770     4.6480    -0.9500 ha         1 11M       0.131000
     38 H1          -3.5330     1.6990    -0.2320 ha         1 11M       0.146000
     39 H11         -0.1830    -2.4570     0.6910 h1         1 11M       0.057450
     40 H11A         0.6720    -1.3470    -0.3590 h1         1 11M       0.057450
     41 H14         -2.9970    -0.1450     2.6860 hc         1 11M       0.061950
     42 H14A        -2.0910     0.9500     1.6530 hc         1 11M       0.061950
     43 H30         -4.9390     2.8450    -2.2160 h1         1 11M       0.033200
     44 H30A        -6.6130     2.3340    -2.3010 h1         1 11M       0.033200
     45 HN64        -6.1830     4.2360    -0.8300 hn         1 11M       0.339300
     46 HN6A        -6.8130     3.0050     0.0050 hn         1 11M       0.339300
     47 H25          5.0750     3.8890    -2.0200 ha         1 11M       0.131000
     48 H27          1.5790     3.1130     0.3370 ha         1 11M       0.153000
     49 H29          5.3540    -3.0380     0.6200 h1         1 11M       0.071367
     50 H29A         4.4860    -3.2740    -0.9260 h1         1 11M       0.071367
     51 H29B         6.2360    -3.5240    -0.8340 h1         1 11M       0.071367
     52 C17          1.0240     0.4730     1.5160 c          1 11M       0.711300
     53 S59          5.7720    -1.2230    -0.9310 ss         1 11M      -0.158700
@<TRIPOS>BOND
     1     1     2 ar  
     2     1    13 ar  
     3     1    28 1   
     4     2     3 ar  
     5     2    29 1   
     6     3    11 ar  
     7     3    19 1   
     8     4     7 1   
     9     4    14 1   
    10     4    30 1   
    11     4    31 1   
    12     5     7 1   
    13     5    15 1   
    14     5    32 1   
    15     5    33 1   
    16     6    16 1   
    17     6    17 1   
    18     6    34 1   
    19     6    35 1   
    20     7    12 1   
    21     7    17 1   
    22     8    23 2   
    23     8    24 1   
    24     8    53 1   
    25     9    23 ar  
    26     9    25 ar  
    27     9    36 1   
    28    10    25 ar  
    29    10    26 ar  
    30    10    37 1   
    31    11    12 ar  
    32    11    38 1   
    33    12    13 ar  
    34    13    14 1   
    35    15    16 1   
    36    15    39 1   
    37    15    40 1   
    38    16    52 1   
    39    17    41 1   
    40    17    42 1   
    41    18    52 2   
    42    19    20 1   
    43    19    43 1   
    44    19    44 1   
    45    20    45 1   
    46    20    46 1   
    47    21    22 2   
    48    21    24 1   
    49    21    52 1   
    50    22    23 ar  
    51    22    26 ar  
    52    25    47 1   
    53    26    48 1   
    54    27    49 1   
    55    27    50 1   
    56    27    51 1   
    57    27    53 1   
@<TRIPOS>SUBSTRUCTURE
     1 11M         1 TEMP              0 ****  ****    0 ROOT
