@<TRIPOS>MOLECULE
11M
   53    57     1     0     0
SMALL
No Charge or Current Charge


@<TRIPOS>ATOM
      1 C4          -6.1120    -1.6350    -0.6100 ca         1 11M      -0.141000
      2 C5          -6.6570    -0.4090    -1.0430 ca         1 11M      -0.074000
      3 C6          -5.8950     0.7810    -0.9570 ca         1 11M      -0.124300
      4 C8          -3.0030    -2.2560     1.0730 c5         1 11M       0.149600
      5 C10         -1.6340    -0.7430    -0.5920 c6         1 11M      -0.091900
      6 C13         -0.8380    -0.1400     2.1640 c6         1 11M       0.090500
      7 C15         -2.6940    -0.7960     0.5420 c5         1 11M      -0.018700
      8 C22          4.5900    -0.4890    -0.3300 cc         1 11M      -0.021800
      9 C24          5.7810     1.7350    -0.6870 ca         1 11M      -0.077000
     10 C26          4.3940     3.7340    -0.4830 ca         1 11M      -0.102000
     11 C1          -4.5820     0.7370    -0.4360 ca         1 11M      -0.024000
     12 C2          -4.0610    -0.4950    -0.0020 ca         1 11M      -0.174300
     13 C3          -4.8140    -1.6440    -0.0870 ca         1 11M       0.128100
     14 O13         -4.1700    -2.7670     0.3470 os         1 11M      -0.332100
     15 C11         -0.2020    -1.0340    -0.0750 c6         1 11M       0.090500
     16 N22          0.1690    -0.1480     1.0680 n          1 11M      -0.407800
     17 C14         -2.2510     0.2060     1.6440 c6         1 11M      -0.091900
     18 O61          1.0480     1.8990     1.6040 o          1 11M      -0.581100
     19 C30         -6.4780     2.1000    -1.4410 c3         1 11M       0.201100
     20 N64         -7.0780     2.8570    -0.3300 n8         1 11M      -0.995200
     21 C39          2.3800     0.5500     0.1630 cc         1 11M      -0.211600
     22 C41          3.4180     1.5370    -0.1290 ca         1 11M       0.016000
     23 C42          4.6520     0.9530    -0.3890 ca         1 11M      -0.057000
     24 S44          2.9620    -1.1160    -0.0670 ss         1 11M       0.103800
     25 C25          5.6460     3.1350    -0.7290 ca         1 11M      -0.114000
     26 C27          3.2710     2.9360    -0.1850 ca         1 11M      -0.084000
     27 C29          5.2720    -3.2400    -0.4310 c3         1 11M      -0.003100
     28 H4          -6.6860    -2.5550    -0.6780 ha         1 11M       0.130000
     29 H5          -7.6660    -0.3840    -1.4490 ha         1 11M       0.110000
     30 H8          -2.1600    -2.9490     0.9550 h1         1 11M       0.057200
     31 H8A         -3.2640    -2.2280     2.1390 h1         1 11M       0.057200
     32 H10         -1.8920    -1.4600    -1.3840 hc         1 11M       0.061950
     33 H10A        -1.6480     0.2500    -1.0620 hc         1 11M       0.061950
     34 H13         -0.8530    -1.1320     2.6370 h1         1 11M       0.057450
     35 H13A        -0.5530     0.5770     2.9480 h1         1 11M       0.057450
     36 H24          6.7430     1.2700    -0.8880 ha         1 11M       0.121000
     37 H26          4.2920     4.8160    -0.5270 ha         1 11M       0.113000
     38 H1          -3.9830     1.6430    -0.3800 ha         1 11M       0.128000
     39 H11         -0.1180    -2.0840     0.2390 h1         1 11M       0.057450
     40 H11A         0.4760    -0.8840    -0.9240 h1         1 11M       0.057450
     41 H14         -2.9680     0.1960     2.4760 hc         1 11M       0.061950
     42 H14A        -2.2460     1.2310     1.2490 hc         1 11M       0.061950
     43 H30         -5.6890     2.7110    -1.9020 h1         1 11M       0.033200
     44 H30A        -7.2500     1.9110    -2.2000 h1         1 11M       0.033200
     45 HN64        -7.5420     3.6910    -0.7090 hn         1 11M       0.394500
     46 HN6A        -7.8490     2.3040     0.0610 hn         1 11M       0.394500
     47 H25          6.5090     3.7560    -0.9600 ha         1 11M       0.113000
     48 H27          2.3080     3.4060    -0.0100 ha         1 11M       0.135000
     49 H29          4.8360    -3.3690     0.5680 h1         1 11M       0.071367
     50 H29A         4.4990    -3.3990    -1.1930 h1         1 11M       0.071367
     51 H29B         6.0670    -3.9830    -0.5710 h1         1 11M       0.071367
     52 C17          1.1740     0.8490     0.9880 c          1 11M       0.644300
     53 S59          5.9820    -1.5410    -0.5950 ss         1 11M      -0.206600
@<TRIPOS>BOND
     1     1     2 ar  
     2     1    13 ar  
     3     1    28 1   
     4     2     3 ar  
     5     2    29 1   
     6     3    11 ar  
     7     3    19 1   
     8     4     7 1   
     9     4    14 1   
    10     4    30 1   
    11     4    31 1   
    12     5     7 1   
    13     5    15 1   
    14     5    32 1   
    15     5    33 1   
    16     6    16 1   
    17     6    17 1   
    18     6    34 1   
    19     6    35 1   
    20     7    12 1   
    21     7    17 1   
    22     8    23 2   
    23     8    24 1   
    24     8    53 1   
    25     9    23 ar  
    26     9    25 ar  
    27     9    36 1   
    28    10    25 ar  
    29    10    26 ar  
    30    10    37 1   
    31    11    12 ar  
    32    11    38 1   
    33    12    13 ar  
    34    13    14 1   
    35    15    16 1   
    36    15    39 1   
    37    15    40 1   
    38    16    52 1   
    39    17    41 1   
    40    17    42 1   
    41    18    52 2   
    42    19    20 1   
    43    19    43 1   
    44    19    44 1   
    45    20    45 1   
    46    20    46 1   
    47    21    22 2   
    48    21    24 1   
    49    21    52 1   
    50    22    23 ar  
    51    22    26 ar  
    52    25    47 1   
    53    26    48 1   
    54    27    49 1   
    55    27    50 1   
    56    27    51 1   
    57    27    53 1   
@<TRIPOS>SUBSTRUCTURE
     1 11M         1 TEMP              0 ****  ****    0 ROOT
