@<TRIPOS>MOLECULE
11N
   50    53     1     0     0
SMALL
abcg2


@<TRIPOS>ATOM
      1 C4          -3.6770     0.9540    -0.3160 ca         1 11N      -0.028000
      2 C5          -4.9100     1.5580    -0.0450 ca         1 11N      -0.127300
      3 C6          -5.7760     0.9390     0.8520 ca         1 11N      -0.075000
      4 C7          -2.0940    -1.0670     0.2440 c5         1 11N      -0.017700
      5 C8          -2.5870    -2.3400     0.9730 c5         1 11N       0.149600
      6 C10         -0.9510    -0.3760     1.0030 c6         1 11N      -0.082400
      7 C13         -0.3140    -2.1370    -1.1980 c6         1 11N       0.098000
      8 C15         -5.2840     2.8660    -0.6960 c3         1 11N       0.203100
      9 C20          4.1240    -0.1670    -0.7940 ce         1 11N      -0.080200
     10 C22          6.4630     0.5720    -0.8120 ca         1 11N      -0.088000
     11 C24          7.3980     1.9580     0.9130 ca         1 11N      -0.096000
     12 C26          5.0870     1.2890     1.0210 ca         1 11N      -0.088000
     13 C1          -5.4540    -0.2570     1.4910 ca         1 11N      -0.141000
     14 C2          -4.2290    -0.8230     1.1970 ca         1 11N       0.128100
     15 C3          -3.3470    -0.2330     0.3030 ca         1 11N      -0.175300
     16 O15         -3.7560    -1.9760     1.7200 os         1 11N      -0.332100
     17 C11          0.3510    -1.1610     0.9130 c6         1 11N       0.098000
     18 N22          0.7140    -1.4110    -0.4710 n          1 11N      -0.409800
     19 C14         -1.6290    -1.3690    -1.1810 c6         1 11N      -0.082400
     20 N33         -4.9280     2.8850    -2.1050 n8         1 11N      -1.000200
     21 O37          2.1250    -1.4520    -2.2310 o          1 11N      -0.615100
     22 C19          2.8860    -0.3180    -0.3120 cf         1 11N      -0.294200
     23 C41          5.2200     0.5750    -0.1750 ca         1 11N      -0.074800
     24 C23          7.5440     1.2550    -0.2740 ca         1 11N      -0.115000
     25 C25          6.1650     1.9720     1.5580 ca         1 11N      -0.115000
     26 H4          -2.9960     1.4230    -1.0160 ha         1 11N       0.133000
     27 H6          -6.7390     1.3940     1.0560 ha         1 11N       0.110000
     28 H8          -2.8620    -3.1170     0.2510 h1         1 11N       0.057700
     29 H8A         -1.8620    -2.7640     1.6670 h1         1 11N       0.057700
     30 H10         -0.7960     0.6240     0.5860 hc         1 11N       0.059200
     31 H10A        -1.2170    -0.2460     2.0550 hc         1 11N       0.059200
     32 H13          0.0140    -2.3040    -2.2190 h1         1 11N       0.053200
     33 H13A        -0.4420    -3.1250    -0.7380 h1         1 11N       0.053200
     34 H15         -6.3480     3.0600    -0.5030 h1         1 11N       0.033200
     35 H15A        -4.7390     3.6790    -0.2070 h1         1 11N       0.033200
     36 H20          4.3670    -0.6420    -1.7390 ha         1 11N       0.198000
     37 H24          8.2370     2.4950     1.3350 ha         1 11N       0.114000
     38 H26          4.1380     1.3190     1.5410 ha         1 11N       0.114000
     39 H1          -6.1450    -0.7260     2.1800 ha         1 11N       0.130000
     40 H11          1.1330    -0.6250     1.4400 h1         1 11N       0.053200
     41 H11A         0.2500    -2.1250     1.4240 h1         1 11N       0.053200
     42 H14         -2.3900    -1.9480    -1.7100 hc         1 11N       0.059200
     43 H14A        -1.4990    -0.4330    -1.7320 hc         1 11N       0.059200
     44 HN33        -5.5220     2.2400    -2.6110 hn         1 11N       0.396000
     45 HN3A        -5.1220     3.8030    -2.4870 hn         1 11N       0.396000
     46 H19          2.6160     0.1410     0.6280 ha         1 11N       0.180000
     47 H23          8.4990     1.2360    -0.7830 ha         1 11N       0.115000
     48 H25          6.0440     2.5200     2.4830 ha         1 11N       0.115000
     49 C17          1.8850    -1.1020    -1.0770 c          1 11N       0.614300
     50 H22          6.5830     0.0250    -1.7400 ha         1 11N       0.114000
@<TRIPOS>BOND
     1     1     2 ar  
     2     1    15 ar  
     3     1    26 1   
     4     2     3 ar  
     5     2     8 1   
     6     3    13 ar  
     7     3    27 1   
     8     4     5 1   
     9     4     6 1   
    10     4    15 1   
    11     4    19 1   
    12     5    16 1   
    13     5    28 1   
    14     5    29 1   
    15     6    17 1   
    16     6    30 1   
    17     6    31 1   
    18     7    18 1   
    19     7    19 1   
    20     7    32 1   
    21     7    33 1   
    22     8    20 1   
    23     8    34 1   
    24     8    35 1   
    25     9    22 2   
    26     9    23 1   
    27     9    36 1   
    28    10    23 ar  
    29    10    24 ar  
    30    10    50 1   
    31    11    24 ar  
    32    11    25 ar  
    33    11    37 1   
    34    12    23 ar  
    35    12    25 ar  
    36    12    38 1   
    37    13    14 ar  
    38    13    39 1   
    39    14    15 ar  
    40    14    16 1   
    41    17    18 1   
    42    17    40 1   
    43    17    41 1   
    44    18    49 1   
    45    19    42 1   
    46    19    43 1   
    47    20    44 1   
    48    20    45 1   
    49    21    49 2   
    50    22    46 1   
    51    22    49 1   
    52    24    47 1   
    53    25    48 1   
@<TRIPOS>SUBSTRUCTURE
     1 11N         1 TEMP              0 ****  ****    0 ROOT
