@<TRIPOS>MOLECULE
11N
   50    53     1     0     0
SMALL
No Charge or Current Charge


@<TRIPOS>ATOM
      1 C4          -4.2050     0.9200    -0.4430 ca         1 11N      -0.028000
      2 C5          -5.5310     1.1830    -0.0320 ca         1 11N      -0.127300
      3 C6          -6.0840     0.4660     1.0560 ca         1 11N      -0.075000
      4 C7          -2.0380    -0.4850     0.0120 c5         1 11N      -0.017700
      5 C8          -2.0690    -1.7930     0.9050 c5         1 11N       0.149600
      6 C10         -1.0630     0.6090     0.4960 c6         1 11N      -0.082400
      7 C13         -0.2610    -1.2280    -1.6670 c6         1 11N       0.098000
      8 C15         -6.3520     2.2460    -0.7450 c3         1 11N       0.203100
      9 C20          4.5940    -0.3820    -0.6660 ce         1 11N      -0.080200
     10 C22          7.0760    -0.2620    -0.3450 ca         1 11N      -0.088000
     11 C24          8.0800     0.9300     1.5260 ca         1 11N      -0.096000
     12 C26          5.6570     0.8580     1.2800 ca         1 11N      -0.088000
     13 C1          -5.3190    -0.5090     1.7280 ca         1 11N      -0.141000
     14 C2          -4.0140    -0.7560     1.2890 ca         1 11N       0.128100
     15 C3          -3.4620    -0.0620     0.2360 ca         1 11N      -0.175300
     16 O15         -3.1680    -1.6600     1.8660 os         1 11N      -0.332100
     17 C11          0.4210     0.1940     0.3510 c6         1 11N       0.098000
     18 N22          0.8070    -0.4740    -0.9340 n          1 11N      -0.409800
     19 C14         -1.7070    -0.7190    -1.4770 c6         1 11N      -0.082400
     20 N33         -6.9960     1.7010    -1.9520 n8         1 11N      -1.000200
     21 O37          2.4400    -1.3780    -2.2610 o          1 11N      -0.615100
     22 C19          3.2650    -0.1940    -0.4000 cf         1 11N      -0.294200
     23 C41          5.7850     0.0820     0.1070 ca         1 11N      -0.074800
     24 C23          8.2170     0.1590     0.3600 ca         1 11N      -0.115000
     25 C25          6.7990     1.2790     1.9840 ca         1 11N      -0.115000
     26 H4          -3.7650     1.4760    -1.2690 ha         1 11N       0.133000
     27 H6          -7.1020     0.6670     1.3820 ha         1 11N       0.110000
     28 H8          -2.2790    -2.6730     0.2830 h1         1 11N       0.057700
     29 H8A         -1.1280    -1.9780     1.4380 h1         1 11N       0.057700
     30 H10         -1.2330     1.5310    -0.0780 hc         1 11N       0.059200
     31 H10A        -1.2700     0.8650     1.5450 hc         1 11N       0.059200
     32 H13         -0.0390    -1.2200    -2.7430 h1         1 11N       0.053200
     33 H13A        -0.2140    -2.2780    -1.3430 h1         1 11N       0.053200
     34 H15         -7.1300     2.6320    -0.0710 h1         1 11N       0.033200
     35 H15A        -5.7050     3.0860    -1.0350 h1         1 11N       0.033200
     36 H20          4.8530    -0.9490    -1.5640 ha         1 11N       0.198000
     37 H24          8.9630     1.2560     2.0710 ha         1 11N       0.114000
     38 H26          4.6790     1.1440     1.6560 ha         1 11N       0.114000
     39 H1          -5.7330    -1.0610     2.5680 ha         1 11N       0.130000
     40 H11          1.0170     1.1080     0.4790 h1         1 11N       0.053200
     41 H11A         0.6820    -0.4820     1.1780 h1         1 11N       0.053200
     42 H14         -2.4110    -1.4400    -1.9150 hc         1 11N       0.059200
     43 H14A        -1.8320     0.2140    -2.0430 hc         1 11N       0.059200
     44 HN33        -7.6390     0.9540    -1.6680 hn         1 11N       0.396000
     45 HN3A        -7.6140     2.4180    -2.3500 hn         1 11N       0.396000
     46 H19          2.9920     0.3600     0.4880 ha         1 11N       0.180000
     47 H23          9.2080    -0.1130     0.0030 ha         1 11N       0.115000
     48 H25          6.6900     1.8770     2.8860 ha         1 11N       0.115000
     49 C17          2.1630    -0.7230    -1.2640 c          1 11N       0.614300
     50 H22          7.2000    -0.8600    -1.2450 ha         1 11N       0.114000
@<TRIPOS>BOND
     1     1     2 ar  
     2     1    15 ar  
     3     1    26 1   
     4     2     3 ar  
     5     2     8 1   
     6     3    13 ar  
     7     3    27 1   
     8     4     5 1   
     9     4     6 1   
    10     4    15 1   
    11     4    19 1   
    12     5    16 1   
    13     5    28 1   
    14     5    29 1   
    15     6    17 1   
    16     6    30 1   
    17     6    31 1   
    18     7    18 1   
    19     7    19 1   
    20     7    32 1   
    21     7    33 1   
    22     8    20 1   
    23     8    34 1   
    24     8    35 1   
    25     9    22 2   
    26     9    23 1   
    27     9    36 1   
    28    10    23 ar  
    29    10    24 ar  
    30    10    50 1   
    31    11    24 ar  
    32    11    25 ar  
    33    11    37 1   
    34    12    23 ar  
    35    12    25 ar  
    36    12    38 1   
    37    13    14 ar  
    38    13    39 1   
    39    14    15 ar  
    40    14    16 1   
    41    17    18 1   
    42    17    40 1   
    43    17    41 1   
    44    18    49 1   
    45    19    42 1   
    46    19    43 1   
    47    20    44 1   
    48    20    45 1   
    49    21    49 2   
    50    22    46 1   
    51    22    49 1   
    52    24    47 1   
    53    25    48 1   
@<TRIPOS>SUBSTRUCTURE
     1 11N         1 TEMP              0 ****  ****    0 ROOT
