@<TRIPOS>MOLECULE
11O
   53    53     1     0     0
SMALL
abcg2


@<TRIPOS>ATOM
      1 C1           0.9040    -0.0740    -9.2560 c          1 11O       0.717000
      2 C2           1.1310     0.3180    -7.7860 c3         1 11O      -0.204400
      3 C3          -0.0270     0.0780    -6.8320 c3         1 11O      -0.053400
      4 C4           0.2970     0.5070    -5.4060 c3         1 11O      -0.079400
      5 C5          -0.8390     0.2640    -4.4200 c3         1 11O      -0.074400
      6 C6          -0.5020     0.7190    -3.0050 c3         1 11O      -0.076400
      7 C7          -1.6110     0.4420    -1.9970 c3         1 11O      -0.072400
      8 C8          -1.2620     0.9400    -0.5940 c3         1 11O      -0.052200
      9 C9          -2.3450     0.6470     0.3950 c2         1 11O      -0.174200
     10 C10         -2.2440    -0.0050     1.5510 c2         1 11O      -0.273200
     11 C11         -0.9930    -0.5870     2.1500 c3         1 11O       0.218500
     12 C12         -0.6460     0.1380     3.4360 cx         1 11O       0.058300
     13 C13          0.1020    -0.4860     4.5180 cx         1 11O       0.093300
     14 C14          0.9500     0.3100     5.4660 c3         1 11O      -0.068400
     15 C15          1.0380    -0.3250     6.8500 c3         1 11O      -0.072400
     16 C16          1.9060     0.4750     7.8130 c3         1 11O      -0.076400
     17 C17          2.0710    -0.1940     9.1720 c3         1 11O      -0.075400
     18 C18          2.9270     0.6210    10.1310 c3         1 11O      -0.088100
     19 O19         -0.2160    -0.5170    -9.5780 o          1 11O      -0.743500
     20 O20          1.8800     0.0910   -10.0200 o          1 11O      -0.743500
     21 O21         -1.1130    -1.9790     2.3390 oh         1 11O      -0.709000
     22 O22         -1.3140    -0.3050     4.6080 op         1 11O      -0.455000
     23 H21          1.4110     1.3780    -7.7580 hc         1 11O       0.014200
     24 H22          2.0200    -0.2120    -7.4240 hc         1 11O       0.014200
     25 H31         -0.2990    -0.9820    -6.8380 hc         1 11O       0.038200
     26 H32         -0.9130     0.6170    -7.1790 hc         1 11O       0.038200
     27 H41          0.5600     1.5710    -5.3980 hc         1 11O       0.023700
     28 H42          1.1920    -0.0240    -5.0600 hc         1 11O       0.023700
     29 H51         -1.0900    -0.8020    -4.4100 hc         1 11O       0.035200
     30 H52         -1.7400     0.7840    -4.7640 hc         1 11O       0.035200
     31 H61         -0.2790     1.7910    -3.0120 hc         1 11O       0.032700
     32 H62          0.4160     0.2220    -2.6730 hc         1 11O       0.032700
     33 H71         -1.8110    -0.6340    -1.9600 hc         1 11O       0.040200
     34 H72         -2.5400     0.9150    -2.3310 hc         1 11O       0.040200
     35 H81         -1.1040     2.0240    -0.6370 hc         1 11O       0.044700
     36 H82         -0.3090     0.5090    -0.2820 hc         1 11O       0.044700
     37 H91         -3.3300     1.0090     0.1120 ha         1 11O       0.168000
     38 H101        -3.1460    -0.1340     2.1470 ha         1 11O       0.172000
     39 H111        -0.1500    -0.4450     1.4700 h1         1 11O       0.086700
     40 H121        -0.5790     1.2210     3.3240 h1         1 11O       0.089700
     41 H131         0.4070    -1.5240     4.3930 h1         1 11O       0.095700
     42 H141         0.5660     1.3330     5.5430 hc         1 11O       0.050200
     43 H142         1.9540     0.3880     5.0380 hc         1 11O       0.050200
     44 H151         1.4410    -1.3390     6.7540 hc         1 11O       0.043700
     45 H152         0.0330    -0.4340     7.2700 hc         1 11O       0.043700
     46 H161         1.4750     1.4730     7.9490 hc         1 11O       0.036700
     47 H162         2.8950     0.6320     7.3660 hc         1 11O       0.036700
     48 H171         2.5160    -1.1850     9.0330 hc         1 11O       0.037200
     49 H172         1.0850    -0.3660     9.6150 hc         1 11O       0.037200
     50 H181         3.0570     0.1110    11.0860 hc         1 11O       0.030367
     51 H182         3.9200     0.8030     9.7150 hc         1 11O       0.030367
     52 H183         2.4730     1.5930    10.3350 hc         1 11O       0.030367
     53 H211        -1.8150    -2.1390     2.9800 ho         1 11O       0.509000
@<TRIPOS>BOND
     1     1     2 1   
     2     1    19 1   
     3     1    20 1   
     4     2     3 1   
     5     2    23 1   
     6     2    24 1   
     7     3     4 1   
     8     3    25 1   
     9     3    26 1   
    10     4     5 1   
    11     4    27 1   
    12     4    28 1   
    13     5     6 1   
    14     5    29 1   
    15     5    30 1   
    16     6     7 1   
    17     6    31 1   
    18     6    32 1   
    19     7     8 1   
    20     7    33 1   
    21     7    34 1   
    22     8     9 1   
    23     8    35 1   
    24     8    36 1   
    25     9    10 2   
    26     9    37 1   
    27    10    11 1   
    28    10    38 1   
    29    11    12 1   
    30    11    21 1   
    31    11    39 1   
    32    12    13 1   
    33    12    22 1   
    34    12    40 1   
    35    13    14 1   
    36    13    22 1   
    37    13    41 1   
    38    14    15 1   
    39    14    42 1   
    40    14    43 1   
    41    15    16 1   
    42    15    44 1   
    43    15    45 1   
    44    16    17 1   
    45    16    46 1   
    46    16    47 1   
    47    17    18 1   
    48    17    48 1   
    49    17    49 1   
    50    18    50 1   
    51    18    51 1   
    52    18    52 1   
    53    21    53 1   
@<TRIPOS>SUBSTRUCTURE
     1 11O         1 TEMP              0 ****  ****    0 ROOT
