@<TRIPOS>MOLECULE
11O
   53    53     1     0     0
SMALL
No Charge or Current Charge


@<TRIPOS>ATOM
      1 C1           2.1430    -0.2610    -8.0650 c          1 11O       0.717000
      2 C2           2.0700     0.4710    -6.7120 c3         1 11O      -0.204400
      3 C3           0.8150     0.0200    -5.9270 c3         1 11O      -0.053400
      4 C4           0.6740     0.7140    -4.5540 c3         1 11O      -0.079400
      5 C5          -0.5800     0.2620    -3.7720 c3         1 11O      -0.074400
      6 C6          -0.7200     0.9570    -2.4010 c3         1 11O      -0.076400
      7 C7          -1.9740     0.5050    -1.6190 c3         1 11O      -0.072400
      8 C8          -2.1150     1.1970    -0.2480 c3         1 11O      -0.052200
      9 C9          -3.3510     0.7310     0.5000 c2         1 11O      -0.174200
     10 C10         -3.3920    -0.1540     1.5130 c2         1 11O      -0.273200
     11 C11         -2.2140    -0.8900     2.1180 c3         1 11O       0.218500
     12 C12         -1.5210    -0.0280     3.1800 cx         1 11O       0.058300
     13 C13         -0.6120    -0.6200     4.2220 cx         1 11O       0.093300
     14 C14          0.5210     0.2150     4.8080 c3         1 11O      -0.068400
     15 C15          1.1190    -0.4010     6.0910 c3         1 11O      -0.072400
     16 C16          2.2670     0.4410     6.6900 c3         1 11O      -0.076400
     17 C17          2.8640    -0.1760     7.9730 c3         1 11O      -0.075400
     18 C18          4.0100     0.6630     8.5700 c3         1 11O      -0.088100
     19 O19          1.5800     0.2430    -9.0250 o          1 11O      -0.743500
     20 O20          2.7210    -1.3360    -8.1090 o          1 11O      -0.743500
     21 O21         -2.6910    -2.1040     2.6990 oh         1 11O      -0.709000
     22 O22         -1.9630    -0.2110     4.5500 op         1 11O      -0.455000
     23 H21          1.9550     1.5520    -6.8660 hc         1 11O       0.014200
     24 H22          2.9300     0.2040    -6.0840 hc         1 11O       0.014200
     25 H31          0.8550    -1.0670    -5.7770 hc         1 11O       0.038200
     26 H32         -0.0800     0.2260    -6.5280 hc         1 11O       0.038200
     27 H41          0.6320     1.8010    -4.7020 hc         1 11O       0.023700
     28 H42          1.5670     0.5070    -3.9510 hc         1 11O       0.023700
     29 H51         -0.5380    -0.8240    -3.6230 hc         1 11O       0.035200
     30 H52         -1.4730     0.4690    -4.3740 hc         1 11O       0.035200
     31 H61         -0.7620     2.0430    -2.5500 hc         1 11O       0.032700
     32 H62          0.1730     0.7500    -1.7990 hc         1 11O       0.032700
     33 H71         -1.9330    -0.5810    -1.4680 hc         1 11O       0.040200
     34 H72         -2.8690     0.7110    -2.2200 hc         1 11O       0.040200
     35 H81         -2.1620     2.2840    -0.3940 hc         1 11O       0.044700
     36 H82         -1.2080     1.0100     0.3380 hc         1 11O       0.044700
     37 H91         -4.2760     1.1950     0.1520 ha         1 11O       0.168000
     38 H101        -4.3510    -0.3940     1.9730 ha         1 11O       0.172000
     39 H111        -1.4850    -1.1160     1.3260 h1         1 11O       0.086700
     40 H121        -1.3470     1.0050     2.8800 h1         1 11O       0.089700
     41 H131        -0.4300    -1.6950     4.1960 h1         1 11O       0.095700
     42 H141         0.1630     1.2290     5.0290 hc         1 11O       0.050200
     43 H142         1.3150     0.3190     4.0580 hc         1 11O       0.050200
     44 H151         1.4900    -1.4100     5.8680 hc         1 11O       0.043700
     45 H152         0.3240    -0.5110     6.8400 hc         1 11O       0.043700
     46 H161         1.8960     1.4490     6.9140 hc         1 11O       0.036700
     47 H162         3.0610     0.5510     5.9400 hc         1 11O       0.036700
     48 H171         3.2390    -1.1840     7.7520 hc         1 11O       0.037200
     49 H172         2.0730    -0.2870     8.7260 hc         1 11O       0.037200
     50 H181         4.4000     0.1870     9.4770 hc         1 11O       0.030367
     51 H182         4.8330     0.7630     7.8530 hc         1 11O       0.030367
     52 H183         3.6570     1.6680     8.8350 hc         1 11O       0.030367
     53 H211        -2.8890    -1.8580     3.6330 ho         1 11O       0.509000
@<TRIPOS>BOND
     1     1     2 1   
     2     1    19 1   
     3     1    20 1   
     4     2     3 1   
     5     2    23 1   
     6     2    24 1   
     7     3     4 1   
     8     3    25 1   
     9     3    26 1   
    10     4     5 1   
    11     4    27 1   
    12     4    28 1   
    13     5     6 1   
    14     5    29 1   
    15     5    30 1   
    16     6     7 1   
    17     6    31 1   
    18     6    32 1   
    19     7     8 1   
    20     7    33 1   
    21     7    34 1   
    22     8     9 1   
    23     8    35 1   
    24     8    36 1   
    25     9    10 2   
    26     9    37 1   
    27    10    11 1   
    28    10    38 1   
    29    11    12 1   
    30    11    21 1   
    31    11    39 1   
    32    12    13 1   
    33    12    22 1   
    34    12    40 1   
    35    13    14 1   
    36    13    22 1   
    37    13    41 1   
    38    14    15 1   
    39    14    42 1   
    40    14    43 1   
    41    15    16 1   
    42    15    44 1   
    43    15    45 1   
    44    16    17 1   
    45    16    46 1   
    46    16    47 1   
    47    17    18 1   
    48    17    48 1   
    49    17    49 1   
    50    18    50 1   
    51    18    51 1   
    52    18    52 1   
    53    21    53 1   
@<TRIPOS>SUBSTRUCTURE
     1 11O         1 TEMP              0 ****  ****    0 ROOT
