@<TRIPOS>MOLECULE
11P
   28    29     1     0     0
SMALL
bcc


@<TRIPOS>ATOM
      1 O5           3.6200    -0.2820    -0.2050 o          1 11P      -0.951667
      2 O6           2.5390     1.8730     0.6520 o          1 11P      -0.951667
      3 O7           2.5210     1.3400    -1.8590 o          1 11P      -0.951667
      4 O8           1.2200    -1.4030     1.8980 o          1 11P      -0.951667
      5 P4           2.5180     0.7590    -0.4030 p5         1 11P       1.188200
      6 C1           0.8200    -0.0850    -0.4650 c3         1 11P      -0.140600
      7 O2           0.6560    -0.3660    -1.8650 oh         1 11P      -0.677800
      8 P1           0.6750    -1.6900     0.4850 p5         1 11P       1.188200
      9 O10          1.4890    -2.7410    -0.2800 o          1 11P      -0.951667
     10 O9          -0.8290    -2.0310     0.5050 o          1 11P      -0.951667
     11 C3          -0.2720     0.9310    -0.0800 c5         1 11P       0.059600
     12 C16         -0.3470     1.3680     1.3960 c5         1 11P      -0.103400
     13 C17         -1.7750     1.8870     1.6030 c5         1 11P      -0.025100
     14 C23         -2.5580     1.1010     0.5950 ca         1 11P      -0.117300
     15 C26         -3.9260     0.8870     0.5150 ca         1 11P      -0.273300
     16 C29         -4.3930     0.1160    -0.5380 ca         1 11P       0.294200
     17 N25         -3.5990    -0.4030    -1.4720 nb         1 11P      -0.746000
     18 C28         -2.2880    -0.1850    -1.3840 ca         1 11P       0.462200
     19 C27         -1.7100     0.5460    -0.3560 ca         1 11P      -0.015600
     20 HO2          1.2770     0.3030    -2.2510 ho         1 11P       0.405000
     21 H3          -0.0820     1.8370    -0.6810 hc         1 11P       0.008700
     22 H161        -0.1660     0.4970     2.0250 hc         1 11P       0.101700
     23 H162         0.4220     2.1000     1.6220 hc         1 11P       0.101700
     24 H171        -2.1420     1.7640     2.6240 hc         1 11P      -0.019800
     25 H172        -1.8500     2.9570     1.3720 hc         1 11P      -0.019800
     26 H26         -4.6150     1.2940     1.2460 ha         1 11P       0.059000
     27 H29         -5.4540    -0.0910    -0.6350 h4         1 11P      -0.073900
     28 H28         -1.6730    -0.6230    -2.1560 h4         1 11P       0.054100
@<TRIPOS>BOND
     1     1     5 1   
     2     2     5 1   
     3     3     5 1   
     4     4     8 1   
     5     5     6 1   
     6     6     7 1   
     7     6     8 1   
     8     6    11 1   
     9     7    20 1   
    10     8     9 1   
    11     8    10 1   
    12    11    12 1   
    13    11    19 1   
    14    11    21 1   
    15    12    13 1   
    16    12    22 1   
    17    12    23 1   
    18    13    14 1   
    19    13    24 1   
    20    13    25 1   
    21    14    15 ar  
    22    14    19 ar  
    23    15    16 ar  
    24    15    26 1   
    25    16    17 ar  
    26    16    27 1   
    27    17    18 ar  
    28    18    19 ar  
    29    18    28 1   
@<TRIPOS>SUBSTRUCTURE
     1 11P         1 TEMP              0 ****  ****    0 ROOT
