@<TRIPOS>MOLECULE
11P
   28    29     1     0     0
SMALL
No Charge or Current Charge


@<TRIPOS>ATOM
      1 O5           3.6220    -0.3970    -0.4830 o          1 11P      -0.951667
      2 O6           2.6830     1.2530     1.0720 o          1 11P      -0.951667
      3 O7           2.7120     1.6660    -1.2930 o          1 11P      -0.951667
      4 O8           1.4310    -1.4640     1.7980 o          1 11P      -0.951667
      5 P4           2.5330     0.5990    -0.2610 p5         1 11P       1.346000
      6 C1           0.8080    -0.0590    -0.6050 c3         1 11P      -0.433000
      7 O2           0.6430    -0.2440    -2.0810 oh         1 11P      -0.740000
      8 P1           0.8690    -1.6320     0.4260 p5         1 11P       1.346000
      9 O10          1.5970    -2.7190    -0.3010 o          1 11P      -0.951667
     10 O9          -0.5380    -2.1140     0.5670 o          1 11P      -0.951667
     11 C3          -0.3230     0.9540    -0.1700 c5         1 11P       0.059600
     12 C16         -0.3970     1.4410     1.3410 c5         1 11P      -0.103400
     13 C17         -1.8440     2.0270     1.5350 c5         1 11P      -0.025100
     14 C23         -2.6030     1.1590     0.5750 ca         1 11P      -0.117300
     15 C26         -3.9880     0.9400     0.5310 ca         1 11P      -0.190000
     16 C29         -4.4970     0.0860    -0.4680 ca         1 11P       0.228900
     17 N25         -3.7150    -0.5310    -1.3830 nb         1 11P      -0.746000
     18 C28         -2.3660    -0.3100    -1.3180 ca         1 11P       0.396900
     19 C27         -1.7810     0.5390    -0.3490 ca         1 11P       0.049700
     20 HO2          1.3480     0.3110    -2.4980 ho         1 11P       0.444000
     21 H3          -0.1560     1.8450    -0.7890 hc         1 11P       0.008700
     22 H161        -0.2470     0.6070     2.0330 hc         1 11P       0.101700
     23 H162         0.3610     2.1910     1.5820 hc         1 11P       0.101700
     24 H171        -2.1930     1.9380     2.5690 hc         1 11P      -0.019800
     25 H172        -1.8960     3.0830     1.2480 hc         1 11P      -0.019800
     26 H26         -4.6540     1.4170     1.2450 ha         1 11P       0.041000
     27 H29         -5.5640    -0.1100    -0.5420 h4         1 11P      -0.073900
     28 H28         -1.7670    -0.8150    -2.0730 h4         1 11P       0.054100
@<TRIPOS>BOND
     1     1     5 1   
     2     2     5 1   
     3     3     5 1   
     4     4     8 1   
     5     5     6 1   
     6     6     7 1   
     7     6     8 1   
     8     6    11 1   
     9     7    20 1   
    10     8     9 1   
    11     8    10 1   
    12    11    12 1   
    13    11    19 1   
    14    11    21 1   
    15    12    13 1   
    16    12    22 1   
    17    12    23 1   
    18    13    14 1   
    19    13    24 1   
    20    13    25 1   
    21    14    15 ar  
    22    14    19 ar  
    23    15    16 ar  
    24    15    26 1   
    25    16    17 ar  
    26    16    27 1   
    27    17    18 ar  
    28    18    19 ar  
    29    18    28 1   
@<TRIPOS>SUBSTRUCTURE
     1 11P         1 TEMP              0 ****  ****    0 ROOT
