@<TRIPOS>MOLECULE
11S
   16    17     1     0     0
SMALL
No Charge or Current Charge


@<TRIPOS>ATOM
      1 C8           3.2390     0.5900    -0.0200 cc         1 11S      -0.160100
      2 C9           2.1230     1.4160    -0.0270 cd         1 11S      -0.237200
      3 C1           0.3970    -1.7240     0.0030 ca         1 11S      -0.118000
      4 C2          -0.9780    -1.3950     0.0010 ca         1 11S      -0.086000
      5 C3          -1.3910    -0.0390    -0.0110 ca         1 11S       0.092000
      6 C4          -0.4370     1.0010    -0.0210 ca         1 11S      -0.051000
      7 C5           0.9150     0.6350    -0.0190 ca         1 11S      -0.094800
      8 C6           1.3200    -0.6700    -0.0070 ca         1 11S      -0.052200
      9 Cl10        -3.1070     0.3500    -0.0140 cl         1 11S      -0.218000
     10 N7           2.7060    -0.7190    -0.0080 na         1 11S      -0.220700
     11 H8           4.3050     0.8090    -0.0230 h4         1 11S       0.213000
     12 H9           2.1640     2.5040    -0.0370 ha         1 11S       0.208000
     13 H1           0.7250    -2.7610     0.0120 ha         1 11S       0.117000
     14 H2          -1.7230    -2.1850     0.0080 ha         1 11S       0.126000
     15 H4          -0.7410     2.0450    -0.0310 ha         1 11S       0.131000
     16 HN7          3.2540    -1.5740    -0.0010 hn         1 11S       0.351000
@<TRIPOS>BOND
     1     1     2 2   
     2     1    10 1   
     3     1    11 1   
     4     2     7 1   
     5     2    12 1   
     6     3     4 ar  
     7     3     8 ar  
     8     3    13 1   
     9     4     5 ar  
    10     4    14 1   
    11     5     6 ar  
    12     5     9 1   
    13     6     7 ar  
    14     6    15 1   
    15     7     8 ar  
    16     8    10 1   
    17    10    16 1   
@<TRIPOS>SUBSTRUCTURE
     1 11S         1 TEMP              0 ****  ****    0 ROOT
