@<TRIPOS>MOLECULE
11S
   16    17     1     0     0
SMALL
abcg2


@<TRIPOS>ATOM
      1 C8           3.1640     0.5640    -0.0200 cc         1 11S      -0.160100
      2 C9           2.1260     1.4510    -0.0270 cd         1 11S      -0.237200
      3 C1           0.3910    -1.7220     0.0030 ca         1 11S      -0.118000
      4 C2          -0.9480    -1.3890     0.0010 ca         1 11S      -0.086000
      5 C3          -1.3400    -0.0420    -0.0110 ca         1 11S       0.092000
      6 C4          -0.4340     0.9950    -0.0220 ca         1 11S      -0.051000
      7 C5           0.9280     0.6740    -0.0200 ca         1 11S      -0.094800
      8 C6           1.3210    -0.6840    -0.0070 ca         1 11S      -0.052200
      9 CL10        -3.0440     0.3180    -0.0130 cl         1 11S      -0.218000
     10 N7           2.6840    -0.7130    -0.0080 na         1 11S      -0.220700
     11 H8           4.2270     0.7470    -0.0220 h4         1 11S       0.213000
     12 H9           2.2070     2.5260    -0.0370 ha         1 11S       0.208000
     13 H1           0.6990    -2.7600     0.0110 ha         1 11S       0.117000
     14 H2          -1.6980    -2.1670     0.0080 ha         1 11S       0.126000
     15 H4          -0.7640     2.0260    -0.0300 ha         1 11S       0.131000
     16 HN7          3.2540    -1.5420     0.0000 hn         1 11S       0.351000
@<TRIPOS>BOND
     1     1     2 2   
     2     1    10 1   
     3     1    11 1   
     4     2     7 1   
     5     2    12 1   
     6     3     4 ar  
     7     3     8 ar  
     8     3    13 1   
     9     4     5 ar  
    10     4    14 1   
    11     5     6 ar  
    12     5     9 1   
    13     6     7 ar  
    14     6    15 1   
    15     7     8 ar  
    16     8    10 1   
    17    10    16 1   
@<TRIPOS>SUBSTRUCTURE
     1 11S         1 TEMP              0 ****  ****    0 ROOT
