@<TRIPOS>MOLECULE
11U
   59    61     1     0     0
SMALL
abcg2


@<TRIPOS>ATOM
      1 C14          2.2640     0.5450     0.3010 c          1 11U       0.610100
      2 O32          1.7750    -0.4930     0.7310 o          1 11U      -0.601100
      3 C15          3.7470     0.6830     0.0190 c3         1 11U       0.097800
      4 N5           4.3840    -0.6100    -0.0130 n7         1 11U      -0.854400
      5 C16          5.8210    -0.5740    -0.2400 c6         1 11U       0.176500
      6 C21          6.6350     0.0050     0.9220 c6         1 11U      -0.089900
      7 C20          8.1340    -0.0250     0.6360 c6         1 11U      -0.071400
      8 C19          8.6090    -1.4310     0.2900 c6         1 11U      -0.076400
      9 C18          7.8060    -2.0130    -0.8680 c6         1 11U      -0.071400
     10 C17          6.3090    -1.9800    -0.5810 c6         1 11U      -0.089900
     11 N1           1.5110     1.6340     0.0820 n          1 11U      -0.406800
     12 C2           0.0810     1.5960     0.3150 c5         1 11U       0.033700
     13 C7          -0.5770     0.4790    -0.4880 c          1 11U       0.606100
     14 O22         -0.2460     0.2450    -1.6390 o          1 11U      -0.589100
     15 C3          -0.3960     2.9750    -0.1620 c5         1 11U      -0.086400
     16 C4           0.8360     3.8590     0.0040 c5         1 11U      -0.093400
     17 C5           1.9780     2.9320    -0.3870 c5         1 11U       0.108000
     18 N23         -1.5760    -0.1480     0.1520 ns         1 11U      -0.496900
     19 C24         -2.3540    -1.2220    -0.4170 c3         1 11U       0.142300
     20 C25         -3.8340    -1.0170    -0.2250 ca         1 11U      -0.093300
     21 C26         -4.6280    -2.0410     0.2730 ca         1 11U      -0.109500
     22 C27         -5.9970    -1.8710     0.4280 ca         1 11U      -0.080000
     23 C28         -6.6040    -0.6650     0.0880 ca         1 11U      -0.141900
     24 C31         -8.0700    -0.4500     0.2370 ce         1 11U       0.659800
     25 N49         -8.6340     0.4380    -0.4880 n2         1 11U      -0.827100
     26 N48         -8.6960    -1.2790     1.1230 nv         1 11U      -1.076200
     27 C29         -5.8070     0.3610    -0.4200 ca         1 11U      -0.080000
     28 C30         -4.4420     0.1900    -0.5680 ca         1 11U      -0.109500
     29 H15          3.8920     1.1700    -0.9510 h1         1 11U       0.044200
     30 H15A         4.1590     1.3840     0.7640 h1         1 11U       0.044200
     31 H20          4.1850    -1.1110     0.8440 hn         1 11U       0.430000
     32 H21          5.9880     0.0610    -1.1210 h1         1 11U       0.053700
     33 H301         6.3220     1.0310     1.1360 hc         1 11U       0.043200
     34 H31          6.4200    -0.5810     1.8240 hc         1 11U       0.043200
     35 H28          8.6870     0.3620     1.4960 hc         1 11U       0.038950
     36 H291         8.3550     0.6490    -0.2000 hc         1 11U       0.038950
     37 H261         8.4990    -2.0780     1.1670 hc         1 11U       0.039200
     38 H271         9.6740    -1.4210     0.0430 hc         1 11U       0.039200
     39 H241         8.1220    -3.0390    -1.0720 hc         1 11U       0.038950
     40 H25          8.0160    -1.4410    -1.7780 hc         1 11U       0.038950
     41 H22          6.0870    -2.6480     0.2610 hc         1 11U       0.043200
     42 H23          5.7440    -2.3580    -1.4370 hc         1 11U       0.043200
     43 H2          -0.1260     1.4690     1.3830 h1         1 11U       0.061700
     44 H3          -1.2580     3.3220     0.4060 hc         1 11U       0.063700
     45 H3A         -0.6840     2.9340    -1.2150 hc         1 11U       0.063700
     46 H4           0.9470     4.1730     1.0440 hc         1 11U       0.055700
     47 H4A          0.8010     4.7530    -0.6160 hc         1 11U       0.055700
     48 H5           2.9200     3.2100     0.0860 h1         1 11U       0.050700
     49 H5A          2.1310     2.9260    -1.4710 h1         1 11U       0.050700
     50 HN23        -1.7280     0.0620     1.1260 hn         1 11U       0.313500
     51 H24         -2.1220    -1.2780    -1.4810 h1         1 11U       0.068200
     52 H24A        -2.0550    -2.1780     0.0220 h1         1 11U       0.068200
     53 H26         -4.1760    -2.9860     0.5480 ha         1 11U       0.117500
     54 H27         -6.5830    -2.7000     0.8050 ha         1 11U       0.127000
     55 HN49        -9.6260     0.5100    -0.2750 hn         1 11U       0.370400
     56 HN48        -8.1670    -1.6390     1.9000 hn         1 11U       0.460500
     57 HN4A        -9.6540    -1.0680     1.3530 hn         1 11U       0.460500
     58 H29         -6.2650     1.3010    -0.6940 ha         1 11U       0.127000
     59 H30         -3.8450     1.0080    -0.9550 ha         1 11U       0.117500
@<TRIPOS>BOND
     1     1     2 2   
     2     1     3 1   
     3     1    11 1   
     4     3     4 1   
     5     3    29 1   
     6     3    30 1   
     7     4     5 1   
     8     4    31 1   
     9     5     6 1   
    10     5    10 1   
    11     5    32 1   
    12     6     7 1   
    13     6    33 1   
    14     6    34 1   
    15     7     8 1   
    16     7    35 1   
    17     7    36 1   
    18     8     9 1   
    19     8    37 1   
    20     8    38 1   
    21     9    10 1   
    22     9    39 1   
    23     9    40 1   
    24    10    41 1   
    25    10    42 1   
    26    11    12 1   
    27    11    17 1   
    28    12    13 1   
    29    12    15 1   
    30    12    43 1   
    31    13    14 2   
    32    13    18 1   
    33    15    16 1   
    34    15    44 1   
    35    15    45 1   
    36    16    17 1   
    37    16    46 1   
    38    16    47 1   
    39    17    48 1   
    40    17    49 1   
    41    18    19 1   
    42    18    50 1   
    43    19    20 1   
    44    19    51 1   
    45    19    52 1   
    46    20    21 ar  
    47    20    28 ar  
    48    21    22 ar  
    49    21    53 1   
    50    22    23 ar  
    51    22    54 1   
    52    23    24 1   
    53    23    27 ar  
    54    24    25 2   
    55    24    26 1   
    56    25    55 1   
    57    26    56 1   
    58    26    57 1   
    59    27    28 ar  
    60    27    58 1   
    61    28    59 1   
@<TRIPOS>SUBSTRUCTURE
     1 11U         1 TEMP              0 ****  ****    0 ROOT
