@<TRIPOS>MOLECULE
11U
   59    61     1     0     0
SMALL
No Charge or Current Charge


@<TRIPOS>ATOM
      1 C14          2.2810     0.4170     0.1130 c          1 11U       0.610100
      2 O32          1.7540    -0.6500     0.4200 o          1 11U      -0.601100
      3 C15          3.8380     0.5710    -0.0030 c3         1 11U       0.097800
      4 N5           4.6140    -0.7140    -0.0690 n7         1 11U      -0.854400
      5 C16          6.0870    -0.6360    -0.1360 c6         1 11U       0.176500
      6 C21          6.7010    -0.1620     1.2120 c6         1 11U      -0.089900
      7 C20          8.2490    -0.1320     1.1490 c6         1 11U      -0.071400
      8 C19          8.8220    -1.5090     0.7370 c6         1 11U      -0.076400
      9 C18          8.2150    -1.9870    -0.6040 c6         1 11U      -0.071400
     10 C17          6.6670    -2.0180    -0.5370 c6         1 11U      -0.089900
     11 N1           1.4840     1.5570    -0.1430 n          1 11U      -0.406800
     12 C2          -0.0070     1.5170    -0.1590 c5         1 11U       0.033700
     13 C7          -0.6460     0.4960    -1.1580 c          1 11U       0.606100
     14 O22         -0.1260    -0.0180    -2.1410 o          1 11U      -0.589100
     15 C3          -0.3410     2.9580    -0.6500 c5         1 11U      -0.086400
     16 C4           0.7880     3.7920     0.0030 c5         1 11U      -0.093400
     17 C5           2.0350     2.9210    -0.2880 c5         1 11U       0.108000
     18 N23         -1.9430     0.2360    -0.7750 ns         1 11U      -0.496900
     19 C24         -2.8410    -0.6700    -1.4860 c3         1 11U       0.142300
     20 C25         -4.2190    -0.6880    -0.8430 ca         1 11U      -0.093300
     21 C26         -4.5280    -1.6320     0.1520 ca         1 11U      -0.109500
     22 C27         -5.8000    -1.6480     0.7510 ca         1 11U      -0.080000
     23 C28         -6.7880    -0.7060     0.3760 ca         1 11U      -0.141900
     24 C31         -8.1620    -0.7290     0.9810 ce         1 11U       0.659800
     25 N49         -9.1680    -0.1660     0.4510 n2         1 11U      -0.827100
     26 N48         -8.3130    -1.2900     2.2010 nv         1 11U      -1.076200
     27 C29         -6.4720     0.2260    -0.6410 ca         1 11U      -0.080000
     28 C30         -5.1990     0.2390    -1.2370 ca         1 11U      -0.109500
     29 H15          4.0420     1.1690    -0.9010 h1         1 11U       0.044200
     30 H15A         4.1530     1.1690     0.8610 h1         1 11U       0.044200
     31 H20          4.3430    -1.3050     0.7280 hn         1 11U       0.430000
     32 H21          6.3650     0.0860    -0.9200 h1         1 11U       0.053700
     33 H301         6.3360     0.8420     1.4660 hc         1 11U       0.043200
     34 H31          6.3800    -0.8270     2.0250 hc         1 11U       0.043200
     35 H28          8.6560     0.1640     2.1260 hc         1 11U       0.038950
     36 H291         8.5750     0.6340     0.4310 hc         1 11U       0.038950
     37 H261         8.6130    -2.2480     1.5230 hc         1 11U       0.039200
     38 H271         9.9160    -1.4480     0.6500 hc         1 11U       0.039200
     39 H241         8.5970    -2.9860    -0.8520 hc         1 11U       0.038950
     40 H25          8.5360    -1.3190    -1.4160 hc         1 11U       0.038950
     41 H22          6.3480    -2.7830     0.1850 hc         1 11U       0.043200
     42 H23          6.2640    -2.3220    -1.5130 hc         1 11U       0.043200
     43 H2          -0.3930     1.3330     0.8530 h1         1 11U       0.061700
     44 H3          -1.3410     3.2860    -0.3440 hc         1 11U       0.063700
     45 H3A         -0.2940     3.0340    -1.7440 hc         1 11U       0.063700
     46 H4           0.6260     3.8990     1.0830 hc         1 11U       0.055700
     47 H4A          0.8730     4.8000    -0.4180 hc         1 11U       0.055700
     48 H5           2.8470     3.1300     0.4210 h1         1 11U       0.050700
     49 H5A          2.4090     3.0800    -1.3090 h1         1 11U       0.050700
     50 HN23        -2.2910     0.7080     0.0500 hn         1 11U       0.313500
     51 H24         -2.9230    -0.3460    -2.5320 h1         1 11U       0.068200
     52 H24A        -2.4110    -1.6810    -1.4780 h1         1 11U       0.068200
     53 H26         -3.7820    -2.3620     0.4610 ha         1 11U       0.117500
     54 H27         -6.0110    -2.4070     1.5010 ha         1 11U       0.127000
     55 HN49       -10.0080    -0.4930     0.9410 hn         1 11U       0.370400
     56 HN48        -7.4490    -1.4440     2.7070 hn         1 11U       0.460500
     57 HN4A        -9.0810    -0.9420     2.7620 hn         1 11U       0.460500
     58 H29         -7.2130     0.9530    -0.9680 ha         1 11U       0.127000
     59 H30         -4.9760     0.9730    -2.0080 ha         1 11U       0.117500
@<TRIPOS>BOND
     1     1     2 2   
     2     1     3 1   
     3     1    11 1   
     4     3     4 1   
     5     3    29 1   
     6     3    30 1   
     7     4     5 1   
     8     4    31 1   
     9     5     6 1   
    10     5    10 1   
    11     5    32 1   
    12     6     7 1   
    13     6    33 1   
    14     6    34 1   
    15     7     8 1   
    16     7    35 1   
    17     7    36 1   
    18     8     9 1   
    19     8    37 1   
    20     8    38 1   
    21     9    10 1   
    22     9    39 1   
    23     9    40 1   
    24    10    41 1   
    25    10    42 1   
    26    11    12 1   
    27    11    17 1   
    28    12    13 1   
    29    12    15 1   
    30    12    43 1   
    31    13    14 2   
    32    13    18 1   
    33    15    16 1   
    34    15    44 1   
    35    15    45 1   
    36    16    17 1   
    37    16    46 1   
    38    16    47 1   
    39    17    48 1   
    40    17    49 1   
    41    18    19 1   
    42    18    50 1   
    43    19    20 1   
    44    19    51 1   
    45    19    52 1   
    46    20    21 ar  
    47    20    28 ar  
    48    21    22 ar  
    49    21    53 1   
    50    22    23 ar  
    51    22    54 1   
    52    23    24 1   
    53    23    27 ar  
    54    24    25 2   
    55    24    26 1   
    56    25    55 1   
    57    26    56 1   
    58    26    57 1   
    59    27    28 ar  
    60    27    58 1   
    61    28    59 1   
@<TRIPOS>SUBSTRUCTURE
     1 11U         1 TEMP              0 ****  ****    0 ROOT
