@<TRIPOS>MOLECULE
11V
   61    65     1     0     0
SMALL
No Charge or Current Charge


@<TRIPOS>ATOM
      1 CAP         -5.6120     4.0160     0.1330 c6         1 11V       0.126800
      2 CAM         -7.0260     3.8850     0.7730 c6         1 11V       0.153600
      3 OAX         -7.7970     2.8730     0.0830 os         1 11V      -0.449000
      4 CAN         -7.1580     1.5750     0.1050 c6         1 11V       0.153600
      5 CAQ         -5.7450     1.6540    -0.5460 c6         1 11V       0.126800
      6 NBG         -4.8910     2.7050     0.1000 n3         1 11V      -0.721600
      7 CAR         -3.5290     2.8250    -0.4850 c3         1 11V       0.179800
      8 CAO         -2.6700     1.5480    -0.3670 c3         1 11V       0.038600
      9 SAY         -0.9380     1.8400    -0.9640 ss         1 11V      -0.313300
     10 C2          -0.1410     0.2540    -0.7340 ca         1 11V       0.312300
     11 N1          -0.9400    -0.8180    -0.5190 nb         1 11V      -0.310000
     12 C6          -0.3390    -2.0050    -0.3340 ca         1 11V       0.471900
     13 NAW         -1.1230    -3.1290    -0.1370 nu         1 11V      -0.926900
     14 CAZ         -2.4900    -3.3250     0.1000 ca         1 11V       0.294000
     15 CAH         -3.0780    -4.5380    -0.2990 ca         1 11V      -0.133500
     16 CAD         -4.4470    -4.7770    -0.0790 ca         1 11V      -0.090500
     17 CAB         -5.2360    -3.8020     0.5540 ca         1 11V      -0.127000
     18 CAE         -4.6540    -2.5930     0.9710 ca         1 11V      -0.090500
     19 CAI         -3.2850    -2.3590     0.7500 ca         1 11V      -0.133500
     20 N3           1.2120     0.2390    -0.7940 nb         1 11V      -0.206000
     21 C4           1.7850    -0.9650    -0.6150 ca         1 11V       0.182500
     22 C5           1.0430    -2.0850    -0.3920 ca         1 11V      -0.400900
     23 CAL          1.9600    -3.1800    -0.2430 cc         1 11V       0.396800
     24 NAT          3.2310    -2.7760    -0.3670 nd         1 11V      -0.526100
     25 NBH          3.0950    -1.4070    -0.5950 na         1 11V      -0.024100
     26 CAS          4.2580    -0.5190    -0.7860 c3         1 11V       0.092600
     27 CBF          4.9780    -0.1540     0.5310 c3         1 11V       0.170600
     28 ClA          3.8810     0.7770     1.6500 cl         1 11V      -0.268000
     29 CBA          6.2680     0.6290     0.2890 ca         1 11V      -0.104300
     30 CAJ          7.5080     0.0920     0.6920 ca         1 11V      -0.089000
     31 CAF          8.6980     0.8070     0.4690 ca         1 11V      -0.111500
     32 CAC          8.6580     2.0640    -0.1570 ca         1 11V      -0.098000
     33 CAG          7.4260     2.6070    -0.5590 ca         1 11V      -0.111500
     34 CAK          6.2360     1.8940    -0.3370 ca         1 11V      -0.089000
     35 H1          -5.7240     4.4160    -0.8860 h1         1 11V       0.043200
     36 H2          -5.0340     4.7560     0.7070 h1         1 11V       0.043200
     37 H3          -6.9340     3.6120     1.8340 h1         1 11V       0.050200
     38 H4          -7.5560     4.8460     0.7110 h1         1 11V       0.050200
     39 H5          -7.0720     1.2310     1.1460 h1         1 11V       0.050200
     40 H6          -7.7830     0.8560    -0.4420 h1         1 11V       0.050200
     41 H7          -5.2760     0.6630    -0.4600 h1         1 11V       0.043200
     42 H8          -5.8630     1.8630    -1.6190 h1         1 11V       0.043200
     43 H10         -3.5970     3.1030    -1.5450 h1         1 11V       0.043200
     44 H11         -2.9880     3.6340     0.0250 h1         1 11V       0.043200
     45 H12         -2.6370     1.2300     0.6820 h1         1 11V       0.082700
     46 H13         -3.1190     0.7450    -0.9630 h1         1 11V       0.082700
     47 H14         -0.6130    -3.9930    -0.3030 hn         1 11V       0.502000
     48 H15         -2.4780    -5.2970    -0.7930 ha         1 11V       0.126000
     49 H16         -4.8950    -5.7160    -0.3980 ha         1 11V       0.116000
     50 H17         -6.2950    -3.9850     0.7260 ha         1 11V       0.116000
     51 H18         -5.2610    -1.8420     1.4720 ha         1 11V       0.116000
     52 H19         -2.8480    -1.4320     1.1030 ha         1 11V       0.126000
     53 H20          1.7880    -4.2310    -0.0520 h4         1 11V       0.046800
     54 H21          4.9690    -1.0260    -1.4480 h1         1 11V       0.084700
     55 H22          3.9330     0.3970    -1.2930 h1         1 11V       0.084700
     56 H23          5.2200    -1.0870     1.0560 h1         1 11V       0.091700
     57 H24          7.5530    -0.8800     1.1780 ha         1 11V       0.120500
     58 H25          9.6510     0.3860     0.7820 ha         1 11V       0.116500
     59 H26          9.5790     2.6170    -0.3290 ha         1 11V       0.115000
     60 H27          7.3940     3.5810    -1.0420 ha         1 11V       0.116500
     61 H28          5.2880     2.3280    -0.6490 ha         1 11V       0.120500
@<TRIPOS>BOND
     1     1     2 1   
     2     1     6 1   
     3     1    35 1   
     4     1    36 1   
     5     2     3 1   
     6     2    37 1   
     7     2    38 1   
     8     3     4 1   
     9     4     5 1   
    10     4    39 1   
    11     4    40 1   
    12     5     6 1   
    13     5    41 1   
    14     5    42 1   
    15     6     7 1   
    16     7     8 1   
    17     7    43 1   
    18     7    44 1   
    19     8     9 1   
    20     8    45 1   
    21     8    46 1   
    22     9    10 1   
    23    10    11 ar  
    24    10    20 ar  
    25    11    12 ar  
    26    12    13 1   
    27    12    22 ar  
    28    13    14 1   
    29    13    47 1   
    30    14    15 ar  
    31    14    19 ar  
    32    15    16 ar  
    33    15    48 1   
    34    16    17 ar  
    35    16    49 1   
    36    17    18 ar  
    37    17    50 1   
    38    18    19 ar  
    39    18    51 1   
    40    19    52 1   
    41    20    21 ar  
    42    21    22 ar  
    43    21    25 1   
    44    22    23 1   
    45    23    24 2   
    46    23    53 1   
    47    24    25 1   
    48    25    26 1   
    49    26    27 1   
    50    26    54 1   
    51    26    55 1   
    52    27    28 1   
    53    27    29 1   
    54    27    56 1   
    55    29    30 ar  
    56    29    34 ar  
    57    30    31 ar  
    58    30    57 1   
    59    31    32 ar  
    60    31    58 1   
    61    32    33 ar  
    62    32    59 1   
    63    33    34 ar  
    64    33    60 1   
    65    34    61 1   
@<TRIPOS>SUBSTRUCTURE
     1 11V         1 TEMP              0 ****  ****    0 ROOT
