@<TRIPOS>MOLECULE
11V
   61    65     1     0     0
SMALL
abcg2


@<TRIPOS>ATOM
      1 CAP         -5.4970     3.7700     0.1830 c6         1 11V       0.126800
      2 CAM         -6.8980     3.4880     0.6920 c6         1 11V       0.153600
      3 OAX         -7.6090     2.6350    -0.1790 os         1 11V      -0.449000
      4 CAN         -6.9140     1.4240    -0.3740 c6         1 11V       0.153600
      5 CAQ         -5.5120     1.6600    -0.9020 c6         1 11V       0.126800
      6 NBG         -4.7780     2.5210     0.0080 n3         1 11V      -0.721600
      7 CAR         -3.4020     2.7320    -0.3920 c3         1 11V       0.179800
      8 CAO         -2.5760     1.4760    -0.1430 c3         1 11V       0.038600
      9 SAY         -0.8380     1.8230    -0.5250 ss         1 11V      -0.313300
     10 C2          -0.1000     0.2350    -0.3870 ca         1 11V       0.312300
     11 N1          -0.8990    -0.7990    -0.1330 nb         1 11V      -0.310000
     12 C6          -0.3750    -2.0120    -0.0340 ca         1 11V       0.471900
     13 NAW         -1.1650    -3.0790     0.1960 nu         1 11V      -0.926900
     14 CAZ         -2.5630    -3.1310     0.3020 ca         1 11V       0.294000
     15 CAH         -3.1920    -4.3010    -0.1260 ca         1 11V      -0.133500
     16 CAD         -4.5670    -4.4360    -0.0260 ca         1 11V      -0.090500
     17 CAB         -5.3380    -3.4050     0.4940 ca         1 11V      -0.127000
     18 CAE         -4.7100    -2.2470     0.9310 ca         1 11V      -0.090500
     19 CAI         -3.3320    -2.1040     0.8480 ca         1 11V      -0.133500
     20 N3           1.2060     0.2350    -0.5630 nb         1 11V      -0.206000
     21 C4           1.7260    -0.9870    -0.4510 ca         1 11V       0.182500
     22 C5           1.0200    -2.1630    -0.1860 ca         1 11V      -0.400900
     23 CAL          2.0080    -3.1750    -0.1630 cc         1 11V       0.396800
     24 NAT          3.1890    -2.6640    -0.3960 nd         1 11V      -0.526100
     25 NBH          3.0180    -1.3410    -0.5780 na         1 11V      -0.024100
     26 CAS          4.1520    -0.4830    -0.7850 c3         1 11V       0.092600
     27 CBF          5.0290    -0.3610     0.4540 c3         1 11V       0.170600
     28 CLA          4.0200     0.2420     1.8300 cl         1 11V      -0.268000
     29 CBA          6.1970     0.5480     0.2150 ca         1 11V      -0.104300
     30 CAJ          7.4850     0.0240     0.2130 ca         1 11V      -0.089000
     31 CAF          8.5770     0.8410    -0.0550 ca         1 11V      -0.111500
     32 CAC          8.3870     2.1880    -0.3210 ca         1 11V      -0.098000
     33 CAG          7.1020     2.7190    -0.3170 ca         1 11V      -0.111500
     34 CAK          6.0130     1.9040    -0.0500 ca         1 11V      -0.089000
     35 H1          -5.5510     4.3510    -0.7530 h1         1 11V       0.043200
     36 H2          -4.9770     4.3900     0.9180 h1         1 11V       0.043200
     37 H3          -6.8320     3.0430     1.6950 h1         1 11V       0.050200
     38 H4          -7.4640     4.4170     0.7730 h1         1 11V       0.050200
     39 H5          -6.8570     0.8560     0.5660 h1         1 11V       0.050200
     40 H6          -7.4860     0.8310    -1.0890 h1         1 11V       0.050200
     41 H7          -5.0150     0.6930    -0.9950 h1         1 11V       0.043200
     42 H8          -5.5660     2.0940    -1.9150 h1         1 11V       0.043200
     43 H10         -3.3140     3.0380    -1.4470 h1         1 11V       0.043200
     44 H11         -3.0000     3.5520     0.2080 h1         1 11V       0.043200
     45 H12         -2.6680     1.1770     0.9000 h1         1 11V       0.082700
     46 H13         -2.9020     0.6470    -0.7680 h1         1 11V       0.082700
     47 H14         -0.7110    -3.9780     0.1330 hn         1 11V       0.502000
     48 H15         -2.6010    -5.1070    -0.5450 ha         1 11V       0.126000
     49 H16         -5.0350    -5.3500    -0.3680 ha         1 11V       0.116000
     50 H17         -6.4120    -3.5070     0.5660 ha         1 11V       0.116000
     51 H18         -5.2950    -1.4400     1.3550 ha         1 11V       0.116000
     52 H19         -2.8660    -1.2020     1.2110 ha         1 11V       0.126000
     53 H20          1.8960    -4.2350     0.0070 h4         1 11V       0.046800
     54 H21          4.7600    -0.8840    -1.5980 h1         1 11V       0.084700
     55 H22          3.7790     0.4920    -1.0940 h1         1 11V       0.084700
     56 H23          5.3750    -1.3490     0.7580 h1         1 11V       0.091700
     57 H24          7.6380    -1.0280     0.4210 ha         1 11V       0.120500
     58 H25          9.5750     0.4220    -0.0500 ha         1 11V       0.116500
     59 H26          9.2370     2.8260    -0.5270 ha         1 11V       0.115000
     60 H27          6.9480     3.7710    -0.5170 ha         1 11V       0.116500
     61 H28          5.0170     2.3310    -0.0360 ha         1 11V       0.120500
@<TRIPOS>BOND
     1     1     2 1   
     2     1     6 1   
     3     1    35 1   
     4     1    36 1   
     5     2     3 1   
     6     2    37 1   
     7     2    38 1   
     8     3     4 1   
     9     4     5 1   
    10     4    39 1   
    11     4    40 1   
    12     5     6 1   
    13     5    41 1   
    14     5    42 1   
    15     6     7 1   
    16     7     8 1   
    17     7    43 1   
    18     7    44 1   
    19     8     9 1   
    20     8    45 1   
    21     8    46 1   
    22     9    10 1   
    23    10    11 ar  
    24    10    20 ar  
    25    11    12 ar  
    26    12    13 1   
    27    12    22 ar  
    28    13    14 1   
    29    13    47 1   
    30    14    15 ar  
    31    14    19 ar  
    32    15    16 ar  
    33    15    48 1   
    34    16    17 ar  
    35    16    49 1   
    36    17    18 ar  
    37    17    50 1   
    38    18    19 ar  
    39    18    51 1   
    40    19    52 1   
    41    20    21 ar  
    42    21    22 ar  
    43    21    25 1   
    44    22    23 1   
    45    23    24 2   
    46    23    53 1   
    47    24    25 1   
    48    25    26 1   
    49    26    27 1   
    50    26    54 1   
    51    26    55 1   
    52    27    28 1   
    53    27    29 1   
    54    27    56 1   
    55    29    30 ar  
    56    29    34 ar  
    57    30    31 ar  
    58    30    57 1   
    59    31    32 ar  
    60    31    58 1   
    61    32    33 ar  
    62    32    59 1   
    63    33    34 ar  
    64    33    60 1   
    65    34    61 1   
@<TRIPOS>SUBSTRUCTURE
     1 11V         1 TEMP              0 ****  ****    0 ROOT
