@<TRIPOS>MOLECULE
11W
   46    47     1     0     0
SMALL
bcc


@<TRIPOS>ATOM
      1 CAK         -0.2500   -23.9980    24.7200 ca         1 11W      -0.106500
      2 CAI          0.8760   -23.5750    25.4020 ca         1 11W      -0.140500
      3 CAH          1.9670   -24.4260    25.5650 ca         1 11W      -0.136000
      4 CAJ          1.9270   -25.7100    25.0390 ca         1 11W      -0.140500
      5 CAL          0.7990   -26.1400    24.3540 ca         1 11W      -0.106500
      6 CAX         -0.2920   -25.2910    24.1900 ca         1 11W       0.108400
      7 NAS         -1.3780   -25.8320    23.4800 ne         1 11W      -0.240400
      8 NAT         -2.3410   -25.0670    23.3200 nf         1 11W      -0.181400
      9 CAY         -3.4280   -25.5950    22.6130 ca         1 11W       0.019400
     10 CAP         -3.5040   -26.8970    22.1030 ca         1 11W      -0.076500
     11 CAN         -4.6260   -27.3060    21.4170 ca         1 11W      -0.158000
     12 CAO         -4.4990   -24.7290    22.4190 ca         1 11W      -0.076500
     13 CAM         -5.6220   -25.1450    21.7260 ca         1 11W      -0.158000
     14 CAW         -5.7130   -26.4410    21.2110 ca         1 11W       0.056200
     15 CAG         -6.9210   -26.8240    20.4830 ce         1 11W      -0.224200
     16 CAF         -7.2120   -28.0300    19.9850 c2         1 11W      -0.033200
     17 CD1         -8.4660   -28.3490    19.2420 c3         1 11W      -0.046200
     18 CG          -8.2010   -28.8930    17.8300 c3         1 11W      -0.187700
     19 CD2         -9.5230   -29.3120    17.1500 c          1 11W       0.934600
     20 OAE        -10.4390   -28.4650    17.1480 o          1 11W      -0.855300
     21 OAC         -9.5690   -30.4540    16.6410 o          1 11W      -0.855300
     22 CB          -7.4600   -27.8570    16.9800 c3         1 11W      -0.022400
     23 CA          -7.2370   -28.2710    15.5260 c3         1 11W       0.035500
     24 C           -6.4230   -27.2120    14.7390 c          1 11W       0.926600
     25 O           -5.5890   -27.6350    13.9130 o          1 11W      -0.863800
     26 OXT         -6.7020   -26.0170    14.9640 o          1 11W      -0.863800
     27 N           -6.5940   -29.5770    15.4650 n8         1 11W      -0.907800
     28 H1          -1.0940   -23.3340    24.5980 ha         1 11W       0.148000
     29 H2           0.9080   -22.5740    25.8130 ha         1 11W       0.122000
     30 H3           2.8430   -24.0860    26.1000 ha         1 11W       0.118000
     31 H4           2.7710   -26.3760    25.1610 ha         1 11W       0.122000
     32 H5           0.7520   -27.1390    23.9380 ha         1 11W       0.148000
     33 H6          -2.6790   -27.5830    22.2430 ha         1 11W       0.132000
     34 H7          -4.6560   -28.3160    21.0280 ha         1 11W       0.139000
     35 H8          -4.4390   -23.7230    22.8150 ha         1 11W       0.132000
     36 H9          -6.4450   -24.4560    21.5810 ha         1 11W       0.139000
     37 H10         -7.6460   -26.0270    20.3450 ha         1 11W       0.129000
     38 H11         -6.5120   -28.8530    20.1060 ha         1 11W       0.104000
     39 H12         -9.1010   -27.4620    19.1860 hc         1 11W       0.046200
     40 H13         -9.0220   -29.1040    19.8100 hc         1 11W       0.046200
     41 H14         -7.5650   -29.7790    17.9260 hc         1 11W       0.034700
     42 H16         -6.4890   -27.6490    17.4430 hc         1 11W       0.026200
     43 H17         -8.0170   -26.9170    16.9990 hc         1 11W       0.026200
     44 H18         -8.2260   -28.2830    15.0340 h1         1 11W       0.023700
     45 H20         -7.2930   -30.2930    15.6220 hn         1 11W       0.332800
     46 H21         -6.2340   -29.7070    14.5290 hn         1 11W       0.332800
@<TRIPOS>BOND
     1     1     2 ar  
     2     1     6 ar  
     3     1    28 1   
     4     2     3 ar  
     5     2    29 1   
     6     3     4 ar  
     7     3    30 1   
     8     4     5 ar  
     9     4    31 1   
    10     5     6 ar  
    11     5    32 1   
    12     6     7 1   
    13     7     8 2   
    14     8     9 1   
    15     9    10 ar  
    16     9    12 ar  
    17    10    11 ar  
    18    10    33 1   
    19    11    14 ar  
    20    11    34 1   
    21    12    13 ar  
    22    12    35 1   
    23    13    14 ar  
    24    13    36 1   
    25    14    15 1   
    26    15    16 2   
    27    15    37 1   
    28    16    17 1   
    29    16    38 1   
    30    17    18 1   
    31    17    39 1   
    32    17    40 1   
    33    18    19 1   
    34    18    22 1   
    35    18    41 1   
    36    19    20 1   
    37    19    21 1   
    38    22    23 1   
    39    22    42 1   
    40    22    43 1   
    41    23    24 1   
    42    23    27 1   
    43    23    44 1   
    44    24    25 1   
    45    24    26 1   
    46    27    45 1   
    47    27    46 1   
@<TRIPOS>SUBSTRUCTURE
     1 11W         1 TEMP              0 ****  ****    0 ROOT
