@<TRIPOS>MOLECULE
11W
   46    47     1     0     0
SMALL
No Charge or Current Charge


@<TRIPOS>ATOM
      1 CAK         -0.0560   -23.6800    24.4430 ca         1 11W      -0.088500
      2 CAI          1.0530   -23.3820    25.2550 ca         1 11W      -0.122500
      3 CAH          1.9850   -24.3860    25.5680 ca         1 11W      -0.118000
      4 CAJ          1.8090   -25.6880    25.0680 ca         1 11W      -0.122500
      5 CAL          0.6990   -25.9850    24.2560 ca         1 11W      -0.088500
      6 CAX         -0.2400   -24.9830    23.9430 ca         1 11W       0.108400
      7 NAS         -1.3460   -25.2800    23.1240 ne         1 11W      -0.240400
      8 NAT         -2.3880   -25.6710    23.7270 nf         1 11W      -0.181400
      9 CAY         -3.5000   -25.9690    22.9050 ca         1 11W       0.019400
     10 CAP         -3.6820   -27.2700    22.4040 ca         1 11W      -0.058500
     11 CAN         -4.7920   -27.5680    21.5930 ca         1 11W      -0.140000
     12 CAO         -4.4370   -24.9680    22.5910 ca         1 11W      -0.058500
     13 CAM         -5.5460   -25.2680    21.7800 ca         1 11W      -0.140000
     14 CAW         -5.7370   -26.5690    21.2770 ca         1 11W       0.056200
     15 CAG         -6.9260   -26.8440    20.4190 ce         1 11W      -0.274200
     16 CAF         -7.3940   -28.0630    20.0650 c2         1 11W      -0.083200
     17 CD1         -8.6100   -28.3130    19.1950 c3         1 11W      -0.046200
     18 CG          -8.2560   -28.8340    17.7750 c3         1 11W      -0.187700
     19 CD2         -9.5350   -29.2750    17.0250 c          1 11W       0.724000
     20 OAE        -10.3840   -28.4350    16.7620 o          1 11W      -0.750000
     21 OAC         -9.6570   -30.4580    16.7430 o          1 11W      -0.750000
     22 CB          -7.4250   -27.8000    16.9520 c3         1 11W      -0.022400
     23 CA          -7.0540   -28.2370    15.5010 c3         1 11W       0.035500
     24 C           -6.4680   -27.0270    14.6470 c          1 11W       0.716000
     25 O           -6.7390   -26.9840    13.4530 o          1 11W      -0.758500
     26 OXT         -5.7640   -26.1840    15.1920 o          1 11W      -0.758500
     27 N           -6.2310   -29.5040    15.5150 n8         1 11W      -1.018200
     28 H1          -0.7760   -22.9020    24.2020 ha         1 11W       0.130000
     29 H2           1.1890   -22.3740    25.6410 ha         1 11W       0.104000
     30 H3           2.8430   -24.1560    26.1960 ha         1 11W       0.100000
     31 H4           2.5300   -26.4650    25.3090 ha         1 11W       0.104000
     32 H5           0.5650   -26.9920    23.8690 ha         1 11W       0.130000
     33 H6          -2.9610   -28.0490    22.6410 ha         1 11W       0.114000
     34 H7          -4.9010   -28.5780    21.2100 ha         1 11W       0.121000
     35 H8          -4.3040   -23.9590    22.9760 ha         1 11W       0.114000
     36 H9          -6.2610   -24.4830    21.5460 ha         1 11W       0.121000
     37 H10         -7.4470   -25.9520    20.0700 ha         1 11W       0.179000
     38 H11         -6.9110   -28.9790    20.4060 ha         1 11W       0.154000
     39 H12         -9.2100   -27.3980    19.1080 hc         1 11W       0.046200
     40 H13         -9.2550   -29.0510    19.6880 hc         1 11W       0.046200
     41 H14         -7.6330   -29.7260    17.9150 hc         1 11W       0.034700
     42 H16         -6.5020   -27.5610    17.4960 hc         1 11W       0.026200
     43 H17         -7.9970   -26.8650    16.8930 hc         1 11W       0.026200
     44 H18         -7.9960   -28.5010    15.0030 h1         1 11W       0.023700
     45 H20         -6.7650   -30.2350    15.9990 hn         1 11W       0.388000
     46 H21         -6.1470   -29.8570    14.5540 hn         1 11W       0.388000
@<TRIPOS>BOND
     1     1     2 ar  
     2     1     6 ar  
     3     1    28 1   
     4     2     3 ar  
     5     2    29 1   
     6     3     4 ar  
     7     3    30 1   
     8     4     5 ar  
     9     4    31 1   
    10     5     6 ar  
    11     5    32 1   
    12     6     7 1   
    13     7     8 2   
    14     8     9 1   
    15     9    10 ar  
    16     9    12 ar  
    17    10    11 ar  
    18    10    33 1   
    19    11    14 ar  
    20    11    34 1   
    21    12    13 ar  
    22    12    35 1   
    23    13    14 ar  
    24    13    36 1   
    25    14    15 1   
    26    15    16 2   
    27    15    37 1   
    28    16    17 1   
    29    16    38 1   
    30    17    18 1   
    31    17    39 1   
    32    17    40 1   
    33    18    19 1   
    34    18    22 1   
    35    18    41 1   
    36    19    20 1   
    37    19    21 1   
    38    22    23 1   
    39    22    42 1   
    40    22    43 1   
    41    23    24 1   
    42    23    27 1   
    43    23    44 1   
    44    24    25 1   
    45    24    26 1   
    46    27    45 1   
    47    27    46 1   
@<TRIPOS>SUBSTRUCTURE
     1 11W         1 TEMP              0 ****  ****    0 ROOT
