@<TRIPOS>MOLECULE
11X
   26    27     1     0     0
SMALL
bcc


@<TRIPOS>ATOM
      1 N1           3.6660    -0.2960    -1.2700 nb         1 11X      -0.666000
      2 C10         -2.6310    -1.3120    -0.0060 ca         1 11X      -0.199000
      3 C11         -4.0100    -1.2090    -0.0390 ca         1 11X      -0.087500
      4 C9          -1.8240    -0.1630    -0.0210 ca         1 11X       0.166600
      5 C14         -2.4540     1.0870    -0.0580 ca         1 11X      -0.199000
      6 C12         -4.6320     0.0360    -0.0880 ca         1 11X      -0.176000
      7 C13         -3.8400     1.1740    -0.0970 ca         1 11X      -0.087500
      8 C2           2.4170     0.1130    -1.0980 ca         1 11X       0.424200
      9 C4           2.6520     0.2090     1.2640 ca         1 11X      -0.083000
     10 C5           3.9620    -0.2170     1.0990 ca         1 11X      -0.250300
     11 C6           4.4210    -0.4570    -0.1870 ca         1 11X       0.407200
     12 C3           1.8510     0.3850     0.1450 ca         1 11X      -0.226600
     13 N8          -0.4530    -0.3020    -0.0310 nu         1 11X      -0.753600
     14 H11         -4.6070    -2.1120    -0.0250 ha         1 11X       0.126500
     15 H14         -1.8710     1.9980    -0.0560 ha         1 11X       0.128000
     16 H12         -5.7110     0.1120    -0.1140 ha         1 11X       0.131000
     17 H13         -4.3010     2.1540    -0.1280 ha         1 11X       0.126500
     18 H2           1.8220     0.2390    -1.9980 h4         1 11X       0.028100
     19 H4           2.2590     0.4060     2.2540 ha         1 11X       0.137000
     20 H5           4.6150    -0.3630     1.9480 ha         1 11X       0.143000
     21 H6           5.4390    -0.7900    -0.3510 h4         1 11X       0.020100
     22 HN8         -0.1230    -1.1820     0.3360 hn         1 11X       0.411800
     23 C7           0.4170     0.8180     0.2480 c3         1 11X       0.260100
     24 H10         -2.1640    -2.2890     0.0300 ha         1 11X       0.128000
     25 H7           0.2320     1.2560     1.2380 h1         1 11X       0.045700
     26 H7A          0.2290     1.6080    -0.4840 h1         1 11X       0.045700
@<TRIPOS>BOND
     1     1     8 ar  
     2     1    11 ar  
     3     2     3 ar  
     4     2     4 ar  
     5     2    24 1   
     6     3     6 ar  
     7     3    14 1   
     8     4     5 ar  
     9     4    13 1   
    10     5     7 ar  
    11     5    15 1   
    12     6     7 ar  
    13     6    16 1   
    14     7    17 1   
    15     8    12 ar  
    16     8    18 1   
    17     9    10 ar  
    18     9    12 ar  
    19     9    19 1   
    20    10    11 ar  
    21    10    20 1   
    22    11    21 1   
    23    12    23 1   
    24    13    22 1   
    25    13    23 1   
    26    23    25 1   
    27    23    26 1   
@<TRIPOS>SUBSTRUCTURE
     1 11X         1 TEMP              0 ****  ****    0 ROOT
