@<TRIPOS>MOLECULE
11X
   26    27     1     0     0
SMALL
No Charge or Current Charge


@<TRIPOS>ATOM
      1 N1           3.9550     0.0100    -1.2030 nb         1 11X      -0.666000
      2 C10         -2.5900    -1.2890     0.1930 ca         1 11X      -0.181000
      3 C11         -3.9950    -1.2630     0.2200 ca         1 11X      -0.069500
      4 C9          -1.8600    -0.1040     0.0140 ca         1 11X       0.305000
      5 C14         -2.5460     1.1160    -0.1410 ca         1 11X      -0.181000
      6 C12         -4.6750    -0.0440     0.0660 ca         1 11X      -0.158000
      7 C13         -3.9510     1.1470    -0.1150 ca         1 11X      -0.069500
      8 C2           2.6770     0.4560    -1.1530 ca         1 11X       0.358900
      9 C4           2.4700    -0.0730     1.2020 ca         1 11X      -0.065000
     10 C5           3.7940    -0.5370     1.1520 ca         1 11X      -0.167000
     11 C6           4.4970    -0.4780    -0.0630 ca         1 11X       0.341900
     12 C3           1.8980     0.4340     0.0200 ca         1 11X      -0.161300
     13 N8          -0.4660    -0.1660    -0.0080 nu         1 11X      -0.947200
     14 H11         -4.5550    -2.1860     0.3600 ha         1 11X       0.108500
     15 H14         -1.9990     2.0430    -0.2830 ha         1 11X       0.110000
     16 H12         -5.7630    -0.0210     0.0860 ha         1 11X       0.113000
     17 H13         -4.4780     2.0910    -0.2350 ha         1 11X       0.108500
     18 H2           2.2660     0.8430    -2.0850 h4         1 11X       0.028100
     19 H4           1.9030    -0.1060     2.1300 ha         1 11X       0.119000
     20 H5           4.2760    -0.9370     2.0400 ha         1 11X       0.125000
     21 H6           5.5260    -0.8310    -0.1260 h4         1 11X       0.020100
     22 HN8         -0.0630    -1.0950     0.1170 hn         1 11X       0.467000
     23 C7           0.4760     0.9580     0.0030 c3         1 11X       0.260100
     24 H10         -2.0700    -2.2360     0.3130 ha         1 11X       0.110000
     25 H7           0.3090     1.5830     0.8910 h1         1 11X       0.045700
     26 H7A          0.3240     1.5900    -0.8840 h1         1 11X       0.045700
@<TRIPOS>BOND
     1     1     8 ar  
     2     1    11 ar  
     3     2     3 ar  
     4     2     4 ar  
     5     2    24 1   
     6     3     6 ar  
     7     3    14 1   
     8     4     5 ar  
     9     4    13 1   
    10     5     7 ar  
    11     5    15 1   
    12     6     7 ar  
    13     6    16 1   
    14     7    17 1   
    15     8    12 ar  
    16     8    18 1   
    17     9    10 ar  
    18     9    12 ar  
    19     9    19 1   
    20    10    11 ar  
    21    10    20 1   
    22    11    21 1   
    23    12    23 1   
    24    13    22 1   
    25    13    23 1   
    26    23    25 1   
    27    23    26 1   
@<TRIPOS>SUBSTRUCTURE
     1 11X         1 TEMP              0 ****  ****    0 ROOT
