@<TRIPOS>MOLECULE
11Y
   43    46     1     0     0
SMALL
bcc


@<TRIPOS>ATOM
      1 OAA         -6.1220    -0.7990    -0.8190 o          1 11Y      -0.804300
      2 CAS         -4.9190    -0.9090    -1.0940 c          1 11Y       0.933200
      3 OAD         -4.4030    -1.3760    -2.1240 o          1 11Y      -0.804300
      4 CBC         -3.9370    -0.3640    -0.0580 ca         1 11Y      -0.100600
      5 CAQ         -2.8810     0.4260    -0.5050 ca         1 11Y      -0.091000
      6 CAY         -4.0270    -0.6000     1.3100 ca         1 11Y       0.054400
      7 CLA         -5.2570    -1.6370     1.9610 cl         1 11Y      -0.117400
      8 CAM         -3.1070    -0.0680     2.2040 ca         1 11Y      -0.142000
      9 CAN         -2.0980     0.7590     1.7440 ca         1 11Y      -0.160000
     10 CBB         -1.9880     1.0100     0.3820 ca         1 11Y       0.010600
     11 NBE         -0.9530     1.8360    -0.1000 n          1 11Y      -0.364000
     12 CBD          0.4420     1.6330     0.2670 c5         1 11Y       0.246200
     13 CBA          0.9210     0.2610    -0.0860 cc         1 11Y      -0.083400
     14 SAR          0.8990    -0.2840    -1.7200 ss         1 11Y       0.001200
     15 CAO          1.6040    -1.7850    -1.2920 cc         1 11Y      -0.088100
     16 CAX          1.8440    -1.8400     0.0440 cd         1 11Y      -0.052900
     17 BRA          2.6290    -3.3120     0.8930 br         1 11Y      -0.088100
     18 CAP          1.4510    -0.6700     0.7480 cd         1 11Y      -0.102000
     19 CAV         -1.1260     2.9010    -0.9140 c          1 11Y       0.662700
     20 OAC         -2.1550     3.3580    -1.3660 o          1 11Y      -0.592500
     21 CAU          0.2380     3.4420    -1.1750 ce         1 11Y       0.111900
     22 OAE          0.4090     4.4720    -1.9660 oh         1 11Y      -0.435100
     23 CAW          1.1520     2.7250    -0.4970 cf         1 11Y      -0.308400
     24 CAT          2.6060     2.8660    -0.5690 c          1 11Y       0.615900
     25 OAB          3.1380     3.5370    -1.4330 o          1 11Y      -0.517100
     26 CAZ          3.4140     2.1020     0.4200 ca         1 11Y      -0.147600
     27 CAK          4.4350     1.2710    -0.0340 ca         1 11Y      -0.092500
     28 CAI          5.1740     0.5250     0.8720 ca         1 11Y      -0.136000
     29 CAH          4.9210     0.6330     2.2330 ca         1 11Y      -0.115000
     30 CAJ          3.9270     1.4880     2.6900 ca         1 11Y      -0.136000
     31 CAL          3.1650     2.2120     1.7850 ca         1 11Y      -0.092500
     32 H2          -2.7590     0.5790    -1.5690 ha         1 11Y       0.158000
     33 H3          -3.1850    -0.2840     3.2600 ha         1 11Y       0.125000
     34 H4          -1.4070     1.2000     2.4500 ha         1 11Y       0.112000
     35 H5           0.5590     1.7640     1.3460 h1         1 11Y       0.079700
     36 H6           1.7980    -2.5350    -2.0420 h4         1 11Y       0.178000
     37 H7           1.5820    -0.5220     1.8100 ha         1 11Y       0.162000
     38 H8          -0.4500     4.7900    -2.2870 ho         1 11Y       0.456000
     39 H9           4.6330     1.1830    -1.0940 ha         1 11Y       0.138500
     40 H10          5.9500    -0.1390     0.5140 ha         1 11Y       0.130000
     41 H11          5.5020     0.0530     2.9380 ha         1 11Y       0.127000
     42 H12          3.7390     1.5880     3.7510 ha         1 11Y       0.130000
     43 H13          2.3940     2.8790     2.1510 ha         1 11Y       0.138500
@<TRIPOS>BOND
     1     1     2 1   
     2     2     3 1   
     3     2     4 1   
     4     4     5 ar  
     5     4     6 ar  
     6     5    10 ar  
     7     5    32 1   
     8     6     7 1   
     9     6     8 ar  
    10     8     9 ar  
    11     8    33 1   
    12     9    10 ar  
    13     9    34 1   
    14    10    11 1   
    15    11    12 1   
    16    11    19 1   
    17    12    13 1   
    18    12    23 1   
    19    12    35 1   
    20    13    14 1   
    21    13    18 2   
    22    14    15 1   
    23    15    16 2   
    24    15    36 1   
    25    16    17 1   
    26    16    18 1   
    27    18    37 1   
    28    19    20 2   
    29    19    21 1   
    30    21    22 1   
    31    21    23 2   
    32    22    38 1   
    33    23    24 1   
    34    24    25 2   
    35    24    26 1   
    36    26    27 ar  
    37    26    31 ar  
    38    27    28 ar  
    39    27    39 1   
    40    28    29 ar  
    41    28    40 1   
    42    29    30 ar  
    43    29    41 1   
    44    30    31 ar  
    45    30    42 1   
    46    31    43 1   
@<TRIPOS>SUBSTRUCTURE
     1 11Y         1 TEMP              0 ****  ****    0 ROOT
