@<TRIPOS>MOLECULE
11Y
   43    46     1     0     0
SMALL
No Charge or Current Charge


@<TRIPOS>ATOM
      1 OAA         -6.5420    -0.0000    -0.5420 o          1 11Y      -0.699000
      2 CAS         -5.4630    -0.4290    -0.9260 c          1 11Y       0.722600
      3 OAD         -5.2950    -0.9590    -2.0160 o          1 11Y      -0.699000
      4 CBC         -4.2550    -0.1970    -0.0660 ca         1 11Y      -0.100600
      5 CAQ         -3.1880     0.5840    -0.5610 ca         1 11Y      -0.073000
      6 CAY         -4.1660    -0.7450     1.2290 ca         1 11Y       0.146000
      7 ClA         -5.4400    -1.7690     1.8930 cl         1 11Y      -0.209000
      8 CAM         -3.0370    -0.4840     2.0200 ca         1 11Y      -0.124000
      9 CAN         -1.9850     0.3010     1.5220 ca         1 11Y      -0.142000
     10 CBB         -2.0180     0.7960     0.2020 ca         1 11Y      -0.082000
     11 NBE         -0.9880     1.7140    -0.2340 n          1 11Y      -0.204400
     12 CBD          0.4310     1.6170     0.2010 c5         1 11Y       0.246200
     13 CBA          1.0240     0.2550    -0.0650 cc         1 11Y      -0.228300
     14 SAR          1.1270    -0.4730    -1.6620 ss         1 11Y       0.291000
     15 CAO          1.9530    -1.8780    -0.9950 cc         1 11Y      -0.215000
     16 CAX          2.1090    -1.7660     0.3630 cd         1 11Y      -0.052900
     17 BrA          2.9590    -3.0620     1.4320 br         1 11Y      -0.088100
     18 CAP          1.5760    -0.5600     0.8910 cd         1 11Y      -0.084000
     19 CAV         -1.1380     2.8050    -1.1020 c          1 11Y       0.520200
     20 OAC         -2.1730     3.2110    -1.6200 o          1 11Y      -0.517000
     21 CAU          0.2180     3.3920    -1.2800 ce         1 11Y       0.111900
     22 OAE          0.4130     4.4500    -2.1210 oh         1 11Y      -0.474100
     23 CAW          1.1700     2.7540    -0.5570 cf         1 11Y      -0.308400
     24 CAT          2.6470     2.9690    -0.5350 c          1 11Y       0.615900
     25 OAB          3.1880     3.7770    -1.2780 o          1 11Y      -0.517100
     26 CAZ          3.4780     2.1660     0.4250 ca         1 11Y      -0.147600
     27 CAK          4.5120     1.3380    -0.0590 ca         1 11Y      -0.074500
     28 CAI          5.2720     0.5610     0.8320 ca         1 11Y      -0.118000
     29 CAH          5.0130     0.6150     2.2120 ca         1 11Y      -0.097000
     30 CAJ          3.9960     1.4500     2.7020 ca         1 11Y      -0.118000
     31 CAL          3.2300     2.2250     1.8130 ca         1 11Y      -0.074500
     32 H2          -3.2740     0.9940    -1.5640 ha         1 11Y       0.140000
     33 H3          -2.9800    -0.8870     3.0280 ha         1 11Y       0.107000
     34 H4          -1.1390     0.5080     2.1720 ha         1 11Y       0.094000
     35 H5           0.4810     1.8200     1.2790 h1         1 11Y       0.079700
     36 H6           2.2610    -2.6770    -1.6550 h4         1 11Y       0.160000
     37 H7           1.6220    -0.3050     1.9450 ha         1 11Y       0.144000
     38 H8          -0.4690     4.6760    -2.4930 ho         1 11Y       0.495000
     39 H9           4.7140     1.2850    -1.1270 ha         1 11Y       0.120500
     40 H10          6.0610    -0.0850     0.4520 ha         1 11Y       0.112000
     41 H11          5.6020     0.0120     2.9000 ha         1 11Y       0.109000
     42 H12          3.7980     1.4960     3.7710 ha         1 11Y       0.112000
     43 H13          2.4470     2.8720     2.2030 ha         1 11Y       0.120500
@<TRIPOS>BOND
     1     1     2 1   
     2     2     3 1   
     3     2     4 1   
     4     4     5 ar  
     5     4     6 ar  
     6     5    10 ar  
     7     5    32 1   
     8     6     7 1   
     9     6     8 ar  
    10     8     9 ar  
    11     8    33 1   
    12     9    10 ar  
    13     9    34 1   
    14    10    11 1   
    15    11    12 1   
    16    11    19 1   
    17    12    13 1   
    18    12    23 1   
    19    12    35 1   
    20    13    14 1   
    21    13    18 2   
    22    14    15 1   
    23    15    16 2   
    24    15    36 1   
    25    16    17 1   
    26    16    18 1   
    27    18    37 1   
    28    19    20 2   
    29    19    21 1   
    30    21    22 1   
    31    21    23 2   
    32    22    38 1   
    33    23    24 1   
    34    24    25 2   
    35    24    26 1   
    36    26    27 ar  
    37    26    31 ar  
    38    27    28 ar  
    39    27    39 1   
    40    28    29 ar  
    41    28    40 1   
    42    29    30 ar  
    43    29    41 1   
    44    30    31 ar  
    45    30    42 1   
    46    31    43 1   
@<TRIPOS>SUBSTRUCTURE
     1 11Y         1 TEMP              0 ****  ****    0 ROOT
