@<TRIPOS>MOLECULE
11Z
   50    50     1     0     0
SMALL
bcc


@<TRIPOS>ATOM
      1 C4           4.2860     0.7410    -0.3340 c3         1 11Z      -0.071400
      2 C5           8.0790     0.8040     0.4880 c6         1 11Z      -0.072900
      3 C6           7.3860    -1.5870     0.1280 c6         1 11Z      -0.072900
      4 C7           8.4760    -0.5460    -0.1010 c6         1 11Z      -0.073400
      5 C8           3.0920    -0.1630    -0.0410 c3         1 11Z      -0.073400
      6 C9           1.7610     0.5520    -0.2450 c3         1 11Z      -0.076400
      7 C10          0.5430    -0.3320    -0.0060 c3         1 11Z      -0.074400
      8 C11         -0.7730     0.4250    -0.1380 c3         1 11Z      -0.075400
      9 C12         -2.0040    -0.4440     0.0870 c3         1 11Z      -0.074400
     10 C13         -3.3100     0.3330    -0.0200 c3         1 11Z      -0.075400
     11 C14         -4.5500    -0.5260     0.1940 c3         1 11Z      -0.079400
     12 C15         -5.8500     0.2630     0.0960 c3         1 11Z      -0.053400
     13 O2          -8.4390     1.3460    -0.0180 o          1 11Z      -0.848800
     14 C17         -8.4400     0.1240     0.2300 c          1 11Z       0.927600
     15 O1          -9.4490    -0.5860     0.4280 o          1 11Z      -0.848800
     16 C16         -7.0830    -0.5990     0.3030 c3         1 11Z      -0.204400
     17 C1           5.6270     0.2330     0.1900 c6         1 11Z      -0.059700
     18 C3           6.0360    -1.1140    -0.4060 c6         1 11Z      -0.070900
     19 C2           6.7290     1.2670    -0.0470 c6         1 11Z      -0.070900
     20 H1           4.3570     0.9120    -1.4140 hc         1 11Z       0.036700
     21 H2           4.0990     1.7250     0.1120 hc         1 11Z       0.036700
     22 H3           8.0250     0.7190     1.5790 hc         1 11Z       0.035700
     23 H4           8.8470     1.5520     0.2760 hc         1 11Z       0.035700
     24 H5           7.6640    -2.5350    -0.3390 hc         1 11Z       0.035700
     25 H6           7.2990    -1.7860     1.2020 hc         1 11Z       0.035700
     26 H7           8.6480    -0.4330    -1.1770 hc         1 11Z       0.034700
     27 H8           9.4220    -0.8850     0.3290 hc         1 11Z       0.034700
     28 H9           3.1260    -1.0520    -0.6780 hc         1 11Z       0.036700
     29 H10          3.1500    -0.5270     0.9910 hc         1 11Z       0.036700
     30 H11          1.7170     1.4160     0.4270 hc         1 11Z       0.035700
     31 H12          1.7190     0.9590    -1.2620 hc         1 11Z       0.035700
     32 H13          0.5560    -1.1700    -0.7110 hc         1 11Z       0.034700
     33 H14          0.6060    -0.7760     0.9940 hc         1 11Z       0.034700
     34 H15         -0.7820     1.2550     0.5780 hc         1 11Z       0.034700
     35 H16         -0.8290     0.8830    -1.1310 hc         1 11Z       0.034700
     36 H17         -2.0070    -1.2650    -0.6390 hc         1 11Z       0.031700
     37 H18         -1.9420    -0.9150     1.0750 hc         1 11Z       0.031700
     38 H19         -3.3040     1.1490     0.7120 hc         1 11Z       0.033700
     39 H20         -3.3660     0.8120    -1.0040 hc         1 11Z       0.033700
     40 H21         -4.5590    -1.3390    -0.5410 hc         1 11Z       0.023700
     41 H22         -4.4910    -1.0110     1.1760 hc         1 11Z       0.023700
     42 H23         -5.8350     1.0710     0.8340 hc         1 11Z       0.037700
     43 H24         -5.8990     0.7530    -0.8810 hc         1 11Z       0.037700
     44 H26         -7.0930    -1.4110    -0.4340 hc         1 11Z       0.014200
     45 H27         -7.0200    -1.1060     1.2740 hc         1 11Z       0.014200
     46 H28          5.5250     0.0990     1.2770 hc         1 11Z       0.043700
     47 H29          6.0920    -1.0190    -1.4980 hc         1 11Z       0.038450
     48 H30          5.2720    -1.8690    -0.2010 hc         1 11Z       0.038450
     49 H31          6.4460     2.2190     0.4130 hc         1 11Z       0.038450
     50 H32          6.8110     1.4570    -1.1240 hc         1 11Z       0.038450
@<TRIPOS>BOND
     1     1     5 1   
     2     1    17 1   
     3     1    20 1   
     4     1    21 1   
     5     2     4 1   
     6     2    19 1   
     7     2    22 1   
     8     2    23 1   
     9     3     4 1   
    10     3    18 1   
    11     3    24 1   
    12     3    25 1   
    13     4    26 1   
    14     4    27 1   
    15     5     6 1   
    16     5    28 1   
    17     5    29 1   
    18     6     7 1   
    19     6    30 1   
    20     6    31 1   
    21     7     8 1   
    22     7    32 1   
    23     7    33 1   
    24     8     9 1   
    25     8    34 1   
    26     8    35 1   
    27     9    10 1   
    28     9    36 1   
    29     9    37 1   
    30    10    11 1   
    31    10    38 1   
    32    10    39 1   
    33    11    12 1   
    34    11    40 1   
    35    11    41 1   
    36    12    16 1   
    37    12    42 1   
    38    12    43 1   
    39    13    14 1   
    40    14    15 1   
    41    14    16 1   
    42    16    44 1   
    43    16    45 1   
    44    17    18 1   
    45    17    19 1   
    46    17    46 1   
    47    18    47 1   
    48    18    48 1   
    49    19    49 1   
    50    19    50 1   
@<TRIPOS>SUBSTRUCTURE
     1 11Z         1 TEMP              0 ****  ****    0 ROOT
