@<TRIPOS>MOLECULE
11Z
   50    50     1     0     0
SMALL
No Charge or Current Charge


@<TRIPOS>ATOM
      1 C4           4.3300     0.8400    -0.0590 c3         1 11Z      -0.071400
      2 C5           8.2350     0.6470     0.4810 c6         1 11Z      -0.072900
      3 C6           7.4140    -1.6530    -0.2500 c6         1 11Z      -0.072900
      4 C7           8.5350    -0.5970    -0.3890 c6         1 11Z      -0.073400
      5 C8           3.0970    -0.0590     0.2000 c3         1 11Z      -0.073400
      6 C9           1.7570     0.6680    -0.0500 c3         1 11Z      -0.076400
      7 C10          0.5260    -0.2290     0.2040 c3         1 11Z      -0.074400
      8 C11         -0.8130     0.4980    -0.0450 c3         1 11Z      -0.075400
      9 C12         -2.0440    -0.3990     0.2090 c3         1 11Z      -0.074400
     10 C13         -3.3840     0.3280    -0.0400 c3         1 11Z      -0.075400
     11 C14         -4.6150    -0.5700     0.2130 c3         1 11Z      -0.079400
     12 C15         -5.9560     0.1570    -0.0360 c3         1 11Z      -0.053400
     13 O2          -8.9400     0.0480    -1.1840 o          1 11Z      -0.743500
     14 C17         -8.4870     0.0500    -0.0500 c          1 11Z       0.717000
     15 O1          -8.9780     0.6820     0.8730 o          1 11Z      -0.743500
     16 C16         -7.1920    -0.7400     0.2180 c3         1 11Z      -0.204400
     17 C1           5.7120     0.2000     0.2800 c6         1 11Z      -0.059700
     18 C3           6.0260    -1.0540    -0.5900 c6         1 11Z      -0.070900
     19 C2           6.8510     1.2500     0.1370 c6         1 11Z      -0.070900
     20 H1           4.3180     1.1560    -1.1100 hc         1 11Z       0.036700
     21 H2           4.2080     1.7560     0.5330 hc         1 11Z       0.036700
     22 H3           8.2650     0.3700     1.5450 hc         1 11Z       0.035700
     23 H4           9.0190     1.4020     0.3330 hc         1 11Z       0.035700
     24 H5           7.6220    -2.5060    -0.9100 hc         1 11Z       0.035700
     25 H6           7.4040    -2.0480     0.7760 hc         1 11Z       0.035700
     26 H7           8.6330    -0.2970    -1.4420 hc         1 11Z       0.034700
     27 H8           9.4990    -1.0340    -0.0970 hc         1 11Z       0.034700
     28 H9           3.1420    -0.9420    -0.4480 hc         1 11Z       0.036700
     29 H10          3.1240    -0.4170     1.2370 hc         1 11Z       0.036700
     30 H11          1.6990     1.5510     0.6000 hc         1 11Z       0.035700
     31 H12          1.7320     1.0300    -1.0850 hc         1 11Z       0.035700
     32 H13          0.5830    -1.1110    -0.4450 hc         1 11Z       0.034700
     33 H14          0.5520    -0.5910     1.2400 hc         1 11Z       0.034700
     34 H15         -0.8710     1.3800     0.6050 hc         1 11Z       0.034700
     35 H16         -0.8390     0.8600    -1.0810 hc         1 11Z       0.034700
     36 H17         -1.9870    -1.2810    -0.4410 hc         1 11Z       0.031700
     37 H18         -2.0180    -0.7610     1.2440 hc         1 11Z       0.031700
     38 H19         -3.4410     1.2100     0.6100 hc         1 11Z       0.033700
     39 H20         -3.4100     0.6900    -1.0760 hc         1 11Z       0.033700
     40 H21         -4.5570    -1.4520    -0.4370 hc         1 11Z       0.023700
     41 H22         -4.5890    -0.9320     1.2490 hc         1 11Z       0.023700
     42 H23         -6.0120     1.0400     0.6140 hc         1 11Z       0.037700
     43 H24         -5.9810     0.5210    -1.0710 hc         1 11Z       0.037700
     44 H26         -7.1030    -1.5790    -0.4830 hc         1 11Z       0.014200
     45 H27         -7.1350    -1.0380     1.2720 hc         1 11Z       0.014200
     46 H28          5.6610    -0.1090     1.3330 hc         1 11Z       0.043700
     47 H29          5.9920    -0.7870    -1.6550 hc         1 11Z       0.038450
     48 H30          5.2630    -1.8280    -0.4370 hc         1 11Z       0.038450
     49 H31          6.6560     2.1080     0.7950 hc         1 11Z       0.038450
     50 H32          6.8690     1.6440    -0.8890 hc         1 11Z       0.038450
@<TRIPOS>BOND
     1     1     5 1   
     2     1    17 1   
     3     1    20 1   
     4     1    21 1   
     5     2     4 1   
     6     2    19 1   
     7     2    22 1   
     8     2    23 1   
     9     3     4 1   
    10     3    18 1   
    11     3    24 1   
    12     3    25 1   
    13     4    26 1   
    14     4    27 1   
    15     5     6 1   
    16     5    28 1   
    17     5    29 1   
    18     6     7 1   
    19     6    30 1   
    20     6    31 1   
    21     7     8 1   
    22     7    32 1   
    23     7    33 1   
    24     8     9 1   
    25     8    34 1   
    26     8    35 1   
    27     9    10 1   
    28     9    36 1   
    29     9    37 1   
    30    10    11 1   
    31    10    38 1   
    32    10    39 1   
    33    11    12 1   
    34    11    40 1   
    35    11    41 1   
    36    12    16 1   
    37    12    42 1   
    38    12    43 1   
    39    13    14 1   
    40    14    15 1   
    41    14    16 1   
    42    16    44 1   
    43    16    45 1   
    44    17    18 1   
    45    17    19 1   
    46    17    46 1   
    47    18    47 1   
    48    18    48 1   
    49    19    49 1   
    50    19    50 1   
@<TRIPOS>SUBSTRUCTURE
     1 11Z         1 TEMP              0 ****  ****    0 ROOT
