@<TRIPOS>MOLECULE
120
   31    33     1     0     0
SMALL
abcg2


@<TRIPOS>ATOM
      1 C1           3.3450     0.0070     0.0360 ca         1 120      -0.289900
      2 C2           3.1400    -1.3730     0.2370 ca         1 120      -0.080000
      3 C3           1.8700    -1.9010     0.3420 ca         1 120      -0.080000
      4 C4           0.8080    -1.0110     0.2300 ca         1 120      -0.034200
      5 C5           0.9940     0.3700     0.0240 ca         1 120       0.071400
      6 C6           2.2770     0.8920    -0.0680 ca         1 120       0.009000
      7 C7           4.7160     0.5210    -0.0640 ce         1 120       0.528400
      8 N1           5.0020     1.6980     0.4410 nv         1 120      -0.576200
      9 N2           5.6360    -0.2020    -0.6590 nv         1 120      -0.560300
     10 N3          -0.5400    -1.1740     0.2710 na         1 120      -0.279600
     11 N4          -0.2160     1.0000    -0.0580 nc         1 120      -0.589100
     12 C8          -1.1080     0.0520     0.0950 cd         1 120       0.537100
     13 C9          -2.5460     0.2680     0.0750 cd         1 120      -0.316800
     14 C10         -3.0430     1.5310    -0.1410 cc         1 120      -0.001000
     15 C11         -4.4220     1.7880    -0.1670 cc         1 120      -0.306000
     16 C12         -5.2670     0.7400     0.0310 cd         1 120       0.009600
     17 N5          -4.7820    -0.4970     0.2420 ns         1 120      -0.341100
     18 C13         -3.4480    -0.8420     0.2830 c          1 120       0.567200
     19 O6          -3.1220    -2.0120     0.4830 o          1 120      -0.588000
     20 HC2          3.9880    -2.0360     0.3430 ha         1 120       0.121000
     21 HC3          1.7170    -2.9580     0.5080 ha         1 120       0.148000
     22 HC6          2.4260     1.9490    -0.2460 ha         1 120       0.136000
     23 HH11         4.3390     2.1820     1.0240 hn         1 120       0.375250
     24 HH12         5.9160     2.1150     0.3440 hn         1 120       0.375250
     25 HH21         6.6020     0.0840    -0.6950 hn         1 120       0.375250
     26 HH22         5.3890    -1.0340    -1.1680 hn         1 120       0.375250
     27 HN3         -1.0700    -2.0230     0.4130 hn         1 120       0.410000
     28 H1          -2.3470     2.3450    -0.2960 ha         1 120       0.216000
     29 H2          -4.8090     2.7800    -0.3390 ha         1 120       0.221000
     30 HC4         -6.3430     0.8320     0.0310 h4         1 120       0.220000
     31 HN5         -5.4400    -1.2530     0.3870 hn         1 120       0.345500
@<TRIPOS>BOND
     1     1     2 ar  
     2     1     6 ar  
     3     1     7 1   
     4     2     3 ar  
     5     2    20 1   
     6     3     4 ar  
     7     3    21 1   
     8     4     5 ar  
     9     4    10 1   
    10     5     6 ar  
    11     5    11 1   
    12     6    22 1   
    13     7     8 2   
    14     7     9 1   
    15     8    23 1   
    16     8    24 1   
    17     9    25 1   
    18     9    26 1   
    19    10    12 1   
    20    10    27 1   
    21    11    12 2   
    22    12    13 1   
    23    13    14 2   
    24    13    18 1   
    25    14    15 1   
    26    14    28 1   
    27    15    16 2   
    28    15    29 1   
    29    16    17 1   
    30    16    30 1   
    31    17    18 1   
    32    17    31 1   
    33    18    19 2   
@<TRIPOS>SUBSTRUCTURE
     1 120         1 TEMP              0 ****  ****    0 ROOT
