@<TRIPOS>MOLECULE
120
   31    33     1     0     0
SMALL
No Charge or Current Charge


@<TRIPOS>ATOM
      1 C1           3.3900     0.0060     0.0370 ca         1 120      -0.289900
      2 C2           3.1600    -1.3790     0.2680 ca         1 120      -0.080000
      3 C3           1.8470    -1.8830     0.3700 ca         1 120      -0.080000
      4 C4           0.7870    -0.9790     0.2360 ca         1 120      -0.034200
      5 C5           0.9790     0.3520     0.0140 ca         1 120       0.071400
      6 C6           2.2760     0.8790    -0.0910 ca         1 120       0.009000
      7 C7           4.7750     0.5360    -0.0720 ce         1 120       0.528400
      8 N1           5.0590     1.7860     0.4030 nv         1 120      -0.576200
      9 N2           5.7470    -0.2340    -0.6450 nv         1 120      -0.560300
     10 N3          -0.5570    -1.2160     0.2940 na         1 120      -0.279600
     11 N4          -0.2250     1.0290    -0.0840 nc         1 120      -0.589100
     12 C8          -1.1280     0.0420     0.0910 cd         1 120       0.537100
     13 C9          -2.5580     0.2290     0.0780 cd         1 120      -0.316800
     14 C10         -3.0160     1.5260    -0.1320 cc         1 120      -0.001000
     15 C11         -4.4280     1.7860    -0.1580 cc         1 120      -0.306000
     16 C12         -5.3310     0.7640     0.0240 cd         1 120       0.009600
     17 N5          -4.8450    -0.5130     0.2300 ns         1 120      -0.341100
     18 C13         -3.5240    -0.8800     0.2750 c          1 120       0.567200
     19 O6          -3.2070    -2.0450     0.4650 o          1 120      -0.588000
     20 HC2          3.9950    -2.0690     0.3830 ha         1 120       0.121000
     21 HC3          1.6660    -2.9400     0.5500 ha         1 120       0.148000
     22 HC6          2.4060     1.9420    -0.2820 ha         1 120       0.136000
     23 HH11         4.3810     2.2160     1.0180 hn         1 120       0.375250
     24 HH12         6.0280     2.0480     0.5230 hn         1 120       0.375250
     25 HH21         6.6140     0.2080    -0.9170 hn         1 120       0.375250
     26 HH22         5.4540    -1.0510    -1.1640 hn         1 120       0.375250
     27 HN3         -1.0620    -2.0810     0.4440 hn         1 120       0.410000
     28 H1          -2.3410     2.3700    -0.2810 ha         1 120       0.216000
     29 H2          -4.7730     2.8050    -0.3230 ha         1 120       0.221000
     30 HC4         -6.4160     0.8660     0.0200 h4         1 120       0.220000
     31 HN5         -5.4900    -1.2820     0.3660 hn         1 120       0.345500
@<TRIPOS>BOND
     1     1     2 ar  
     2     1     6 ar  
     3     1     7 1   
     4     2     3 ar  
     5     2    20 1   
     6     3     4 ar  
     7     3    21 1   
     8     4     5 ar  
     9     4    10 1   
    10     5     6 ar  
    11     5    11 1   
    12     6    22 1   
    13     7     8 2   
    14     7     9 1   
    15     8    23 1   
    16     8    24 1   
    17     9    25 1   
    18     9    26 1   
    19    10    12 1   
    20    10    27 1   
    21    11    12 2   
    22    12    13 1   
    23    13    14 2   
    24    13    18 1   
    25    14    15 1   
    26    14    28 1   
    27    15    16 2   
    28    15    29 1   
    29    16    17 1   
    30    16    30 1   
    31    17    18 1   
    32    17    31 1   
    33    18    19 2   
@<TRIPOS>SUBSTRUCTURE
     1 120         1 TEMP              0 ****  ****    0 ROOT
