@<TRIPOS>MOLECULE
121
   31    33     1     0     0
SMALL
bcc


@<TRIPOS>ATOM
      1 C1           3.2620     0.0020     0.0200 ca         1 121      -0.280900
      2 C2           3.1390     1.3910     0.2120 ca         1 121      -0.095000
      3 C3           1.9030     1.9980     0.2970 ca         1 121      -0.096000
      4 C4           0.7900     1.1750     0.1730 ca         1 121      -0.038200
      5 C5           0.8980    -0.2150    -0.0230 ca         1 121       0.087400
      6 C6           2.1450    -0.8180    -0.0960 ca         1 121      -0.013000
      7 C7           4.6020    -0.5950    -0.0570 ce         1 121       0.527400
      8 N1           4.8130    -1.7760     0.4720 nv         1 121      -0.472600
      9 N2           5.5660     0.0640    -0.6540 nv         1 121      -0.456700
     10 N3          -0.5480     1.4260     0.1950 na         1 121      -0.214300
     11 N4          -0.3550    -0.7610    -0.1200 nc         1 121      -0.635100
     12 C8          -1.1850     0.2450     0.0160 cd         1 121       0.432800
     13 C9          -2.6320     0.1210    -0.0240 ca         1 121       0.236000
     14 N5          -3.3340     1.2410     0.1320 nb         1 121      -0.649000
     15 C10         -4.6490     1.1810     0.0990 ca         1 121       0.372200
     16 C11         -5.3340    -0.0180    -0.0970 ca         1 121      -0.167300
     17 C12         -4.6190    -1.1850    -0.2600 ca         1 121      -0.142000
     18 C13         -3.2240    -1.1370    -0.2250 ca         1 121       0.117800
     19 O6          -2.5260    -2.2580    -0.3820 oh         1 121      -0.484100
     20 HC2          4.0240     2.0010     0.3250 ha         1 121       0.142000
     21 HC3          1.8120     3.0630     0.4560 ha         1 121       0.168000
     22 HC6          2.2320    -1.8830    -0.2680 ha         1 121       0.158000
     23 HH11         5.7020    -2.2460     0.3970 hn         1 121       0.326700
     24 HH12         4.1160    -2.2110     1.0550 hn         1 121       0.326700
     25 HH21         5.3730     0.9030    -1.1770 hn         1 121       0.326700
     26 HH22         6.5160    -0.2760    -0.6730 hn         1 121       0.326700
     27 HN3         -1.0050     2.3180     0.3210 hn         1 121       0.351700
     28 H1          -5.1890     2.1120     0.2300 h4         1 121       0.037100
     29 HC4         -6.4150    -0.0290    -0.1190 ha         1 121       0.160000
     30 HC5         -5.1200    -2.1320    -0.4160 ha         1 121       0.169000
     31 HO6         -1.5630    -2.0540    -0.3310 ho         1 121       0.479000
@<TRIPOS>BOND
     1     1     2 ar  
     2     1     6 ar  
     3     1     7 1   
     4     2     3 ar  
     5     2    20 1   
     6     3     4 ar  
     7     3    21 1   
     8     4     5 ar  
     9     4    10 1   
    10     5     6 ar  
    11     5    11 1   
    12     6    22 1   
    13     7     8 2   
    14     7     9 1   
    15     8    23 1   
    16     8    24 1   
    17     9    25 1   
    18     9    26 1   
    19    10    12 1   
    20    10    27 1   
    21    11    12 2   
    22    12    13 1   
    23    13    14 ar  
    24    13    18 ar  
    25    14    15 ar  
    26    15    16 ar  
    27    15    28 1   
    28    16    17 ar  
    29    16    29 1   
    30    17    18 ar  
    31    17    30 1   
    32    18    19 1   
    33    19    31 1   
@<TRIPOS>SUBSTRUCTURE
     1 121         1 TEMP              0 ****  ****    0 ROOT
