@<TRIPOS>MOLECULE
121
   31    33     1     0     0
SMALL
No Charge or Current Charge


@<TRIPOS>ATOM
      1 C1           3.3340     0.0100     0.0260 ca         1 121      -0.280900
      2 C2           3.1910     1.4100     0.2360 ca         1 121      -0.077000
      3 C3           1.9120     1.9990     0.3110 ca         1 121      -0.078000
      4 C4           0.7970     1.1650     0.1720 ca         1 121      -0.038200
      5 C5           0.9060    -0.1780    -0.0310 ca         1 121       0.087400
      6 C6           2.1670    -0.7900    -0.1090 ca         1 121       0.005000
      7 C7           4.6820    -0.6110    -0.0550 ce         1 121       0.527400
      8 N1           4.8780    -1.8680     0.4460 nv         1 121      -0.573200
      9 N2           5.7100     0.0850    -0.6280 nv         1 121      -0.557300
     10 N3          -0.5300     1.4920     0.2050 na         1 121      -0.264600
     11 N4          -0.3370    -0.7790    -0.1400 nc         1 121      -0.635100
     12 C8          -1.1860     0.2690     0.0090 cd         1 121       0.432800
     13 C9          -2.6720     0.1280    -0.0320 ca         1 121       0.170700
     14 N5          -3.4080     1.2700     0.1330 nb         1 121      -0.649000
     15 C10         -4.7600     1.1790     0.1020 ca         1 121       0.306900
     16 C11         -5.4380    -0.0360    -0.0940 ca         1 121      -0.084000
     17 C12         -4.6940    -1.2170    -0.2650 ca         1 121      -0.124000
     18 C13         -3.2920    -1.1420    -0.2350 ca         1 121       0.183100
     19 O6          -2.5680    -2.2940    -0.4020 oh         1 121      -0.523100
     20 HC2          4.0670     2.0460     0.3550 ha         1 121       0.124000
     21 HC3          1.7980     3.0690     0.4750 ha         1 121       0.150000
     22 HC6          2.2290    -1.8610    -0.2850 ha         1 121       0.140000
     23 HH11         5.8280    -2.1870     0.5800 hn         1 121       0.377000
     24 HH12         4.1690    -2.2470     1.0580 hn         1 121       0.377000
     25 HH21         5.4720     0.9060    -1.1670 hn         1 121       0.377000
     26 HH22         6.5510    -0.4140    -0.8820 hn         1 121       0.377000
     27 HN3         -0.9700     2.3930     0.3370 hn         1 121       0.402000
     28 H1          -5.3140     2.1080     0.2370 h4         1 121       0.037100
     29 HC4         -6.5240    -0.0540    -0.1110 ha         1 121       0.142000
     30 HC5         -5.1930    -2.1700    -0.4180 ha         1 121       0.151000
     31 HO6         -1.6090    -2.0360    -0.3500 ho         1 121       0.518000
@<TRIPOS>BOND
     1     1     2 ar  
     2     1     6 ar  
     3     1     7 1   
     4     2     3 ar  
     5     2    20 1   
     6     3     4 ar  
     7     3    21 1   
     8     4     5 ar  
     9     4    10 1   
    10     5     6 ar  
    11     5    11 1   
    12     6    22 1   
    13     7     8 2   
    14     7     9 1   
    15     8    23 1   
    16     8    24 1   
    17     9    25 1   
    18     9    26 1   
    19    10    12 1   
    20    10    27 1   
    21    11    12 2   
    22    12    13 1   
    23    13    14 ar  
    24    13    18 ar  
    25    14    15 ar  
    26    15    16 ar  
    27    15    28 1   
    28    16    17 ar  
    29    16    29 1   
    30    17    18 ar  
    31    17    30 1   
    32    18    19 1   
    33    19    31 1   
@<TRIPOS>SUBSTRUCTURE
     1 121         1 TEMP              0 ****  ****    0 ROOT
