@<TRIPOS>MOLECULE
122
   32    34     1     0     0
SMALL
bcc


@<TRIPOS>ATOM
      1 H1           3.3120    -0.0140     0.0550 ca         1 122      -0.184000
      2 H2           3.0540     1.3630     0.1840 ca         1 122      -0.108000
      3 H3           1.7640     1.8500     0.2270 ca         1 122      -0.063000
      4 H4           0.7190     0.9340     0.1280 ca         1 122       0.026000
      5 H5           0.9930    -0.4390    -0.0040 ca         1 122      -0.058000
      6 H6           2.2790    -0.9430    -0.0400 ca         1 122      -0.057000
      7 H7           4.7020    -0.4860     0.0210 c2         1 122       0.349000
      8 H1           5.0080    -1.6230     0.6000 n8         1 122      -0.319000
      9 H2           5.6130     0.2350    -0.5870 n8         1 122      -0.319000
     10 H3          -0.6310     1.1260     0.1300 n2         1 122      -0.221000
     11 H4          -0.2330    -1.0400    -0.0870 na         1 122      -0.203000
     12 H8          -1.1740    -0.0700     0.0020 cc         1 122       0.165000
     13 H9          -2.6070    -0.2910    -0.0410 ca         1 122      -0.202000
     14 H10         -3.1460    -1.5740    -0.1890 ca         1 122      -0.063000
     15 H11         -4.5090    -1.7780    -0.2300 ca         1 122      -0.171000
     16 H12         -5.3630    -0.6820    -0.1200 ca         1 122      -0.041000
     17 H13         -4.8580     0.5940     0.0270 ca         1 122      -0.181000
     18 H14         -3.4790     0.8130     0.0660 ca         1 122       0.190000
     19 H6          -3.0500     2.0670     0.2030 oh         1 122      -0.246000
     20 HC2          3.8770     2.0580     0.2830 ha         1 122       0.143000
     21 HC3          1.5720     2.9080     0.3380 ha         1 122       0.178000
     22 HC6          2.4660    -2.0010    -0.1650 ha         1 122       0.145000
     23 HH11         5.9380    -2.0140     0.5580 ha         1 122       0.276250
     24 HH12         4.3440    -2.0940     1.1910 ha         1 122       0.276250
     25 HH21         5.3540     1.0320    -1.1440 ha         1 122       0.276250
     26 HH22         6.5900    -0.0190    -0.5810 ha         1 122       0.276250
     27 HN4         -0.3940    -2.0310    -0.1780 ha         1 122       0.277000
     28 H1          -2.4910    -2.4320    -0.2740 ha         1 122       0.115000
     29 H2          -4.9060    -2.7770    -0.3470 ha         1 122       0.149000
     30 HC4         -6.4350    -0.8270    -0.1490 ha         1 122       0.150000
     31 HC5         -5.5250     1.4430     0.1110 ha         1 122       0.164000
     32 HO6         -2.0610     2.0730     0.2100 ha         1 122       0.280000
@<TRIPOS>BOND
     1     1     2 ar  
     2     1     6 ar  
     3     1     7 1   
     4     2     3 ar  
     5     2    20 1   
     6     3     4 ar  
     7     3    21 1   
     8     4     5 ar  
     9     4    10 1   
    10     5     6 ar  
    11     5    11 1   
    12     6    22 1   
    13     7     8 2   
    14     7     9 1   
    15     8    23 1   
    16     8    24 1   
    17     9    25 1   
    18     9    26 1   
    19    10    12 2   
    20    11    12 1   
    21    11    27 1   
    22    12    13 1   
    23    13    14 ar  
    24    13    18 ar  
    25    14    15 ar  
    26    14    28 1   
    27    15    16 ar  
    28    15    29 1   
    29    16    17 ar  
    30    16    30 1   
    31    17    18 ar  
    32    17    31 1   
    33    18    19 1   
    34    19    32 1   
@<TRIPOS>SUBSTRUCTURE
     1 122         1 TEMP              0 ****  ****    0 ROOT
