@<TRIPOS>MOLECULE
122
   32    34     1     0     0
SMALL
No Charge or Current Charge


@<TRIPOS>ATOM
      1 C1           3.3700    -0.0070     0.0590 ca         1 122      -0.267900
      2 C2           3.1030     1.3830     0.2030 ca         1 122      -0.090000
      3 C3           1.7760     1.8640     0.2390 ca         1 122      -0.045000
      4 C4           0.7250     0.9460     0.1300 ca         1 122       0.165400
      5 C5           0.9810    -0.3840    -0.0070 ca         1 122      -0.103200
      6 C6           2.2790    -0.9080    -0.0480 ca         1 122      -0.039000
      7 C7           4.7710    -0.5120     0.0210 ce         1 122       0.526400
      8 N1           5.0640    -1.7330     0.5610 nv         1 122      -0.573700
      9 N2           5.7480     0.2540    -0.5530 nv         1 122      -0.557800
     10 N3          -0.6340     1.2030     0.1410 nc         1 122      -0.648100
     11 N4          -0.2130    -1.0460    -0.0940 na         1 122      -0.296600
     12 C8          -1.1720    -0.0290     0.0030 cd         1 122       0.575400
     13 C9          -2.6380    -0.2420    -0.0380 ca         1 122      -0.285900
     14 C10         -3.1490    -1.5540    -0.1850 ca         1 122      -0.045000
     15 C11         -4.5340    -1.7880    -0.2270 ca         1 122      -0.153000
     16 C12         -5.4350    -0.7200    -0.1240 ca         1 122      -0.023000
     17 C13         -4.9450     0.5860     0.0220 ca         1 122      -0.163000
     18 C14         -3.5640     0.8270     0.0650 ca         1 122       0.235100
     19 O6          -3.1430     2.1110     0.2070 oh         1 122      -0.531100
     20 HC2          3.9180     2.0980     0.3010 ha         1 122       0.125000
     21 HC3          1.5680     2.9240     0.3520 ha         1 122       0.160000
     22 HC6          2.4330    -1.9790    -0.1720 ha         1 122       0.127000
     23 HH11         6.0340    -1.9640     0.7280 hn         1 122       0.376250
     24 HH12         4.3720    -2.1590     1.1620 hn         1 122       0.376250
     25 HH21         5.4520     1.0350    -1.1210 hn         1 122       0.376250
     26 HH22         6.6330    -0.1780    -0.7760 hn         1 122       0.376250
     27 HN4         -0.3870    -2.0350    -0.2030 hn         1 122       0.377000
     28 H1          -2.4830    -2.4090    -0.2680 ha         1 122       0.097000
     29 H2          -4.9090    -2.8030    -0.3400 ha         1 122       0.131000
     30 HC4         -6.5080    -0.9020    -0.1570 ha         1 122       0.132000
     31 HC5         -5.6400     1.4170     0.1020 ha         1 122       0.146000
     32 HO6         -2.1510     2.0650     0.2150 ho         1 122       0.520000
@<TRIPOS>BOND
     1     1     2 ar  
     2     1     6 ar  
     3     1     7 1   
     4     2     3 ar  
     5     2    20 1   
     6     3     4 ar  
     7     3    21 1   
     8     4     5 ar  
     9     4    10 1   
    10     5     6 ar  
    11     5    11 1   
    12     6    22 1   
    13     7     8 2   
    14     7     9 1   
    15     8    23 1   
    16     8    24 1   
    17     9    25 1   
    18     9    26 1   
    19    10    12 2   
    20    11    12 1   
    21    11    27 1   
    22    12    13 1   
    23    13    14 ar  
    24    13    18 ar  
    25    14    15 ar  
    26    14    28 1   
    27    15    16 ar  
    28    15    29 1   
    29    16    17 ar  
    30    16    30 1   
    31    17    18 ar  
    32    17    31 1   
    33    18    19 1   
    34    19    32 1   
@<TRIPOS>SUBSTRUCTURE
     1 122         1 TEMP              0 ****  ****    0 ROOT
