@<TRIPOS>MOLECULE
123
   36    38     1     0     0
SMALL
bcc


@<TRIPOS>ATOM
      1 C1          -3.9210    -0.2650    -0.0220 ca         1 123      -0.287900
      2 C2          -3.9590     1.1430    -0.0540 ca         1 123      -0.099000
      3 C3          -2.8000     1.8910    -0.0560 ca         1 123      -0.100000
      4 C4          -1.6000     1.1900    -0.0360 ca         1 123      -0.041200
      5 C5          -1.5430    -0.2150    -0.0060 ca         1 123       0.072400
      6 C6          -2.7170    -0.9580     0.0050 ca         1 123      -0.006000
      7 C7          -5.1820    -1.0160    -0.0190 ce         1 123       0.528400
      8 N1          -6.2060    -0.5610    -0.7020 nv         1 123      -0.475600
      9 N2          -5.2690    -2.1310     0.6670 nv         1 123      -0.459700
     10 N3          -0.3010     1.5870    -0.0390 na         1 123      -0.227300
     11 N4          -0.2420    -0.6310     0.0030 nc         1 123      -0.575100
     12 C8           0.4760     0.4660    -0.0160 cd         1 123       0.531400
     13 C9           1.9380     0.4710    -0.0160 ca         1 123      -0.145900
     14 C10          2.5890    -0.7620    -0.0170 ca         1 123      -0.082000
     15 C11          3.9730    -0.8580    -0.0220 ca         1 123       0.114100
     16 O3           4.4900    -2.1040    -0.0250 os         1 123      -0.309900
     17 CM3          5.8960    -2.2460    -0.0580 c3         1 123       0.120700
     18 C12          4.7280     0.3130    -0.0240 ca         1 123      -0.139000
     19 C13          4.0930     1.5450    -0.0230 ca         1 123      -0.181000
     20 C14          2.7090     1.6430    -0.0200 ca         1 123       0.126100
     21 O6           2.0780     2.8360    -0.0200 oh         1 123      -0.534100
     22 HC2         -4.9090     1.6610    -0.0460 ha         1 123       0.139000
     23 HC3         -2.8350     2.9720    -0.0660 ha         1 123       0.164000
     24 HC6         -2.6770    -2.0400     0.0030 ha         1 123       0.156000
     25 HH11        -6.1020     0.2200    -1.3290 hn         1 123       0.325450
     26 HH12        -7.1110    -1.0080    -0.6750 hn         1 123       0.325450
     27 HH21        -6.1000    -2.7040     0.6560 hn         1 123       0.325450
     28 HH22        -4.5370    -2.4030     1.3020 hn         1 123       0.325450
     29 HN3          0.0400     2.5370    -0.0590 hn         1 123       0.345700
     30 H1           1.9920    -1.6660    -0.0150 ha         1 123       0.175000
     31 H3'1         6.3750    -1.8130     0.8250 h1         1 123       0.048033
     32 H3'2         6.0980    -3.3140    -0.0740 h1         1 123       0.048033
     33 H3'3         6.3330    -1.7930    -0.9520 h1         1 123       0.048033
     34 HC4          5.8090     0.2930    -0.0290 ha         1 123       0.151000
     35 HC5          4.6950     2.4460    -0.0250 ha         1 123       0.144000
     36 HO6          2.7100     3.5640    -0.0480 ho         1 123       0.450000
@<TRIPOS>BOND
     1     1     2 ar  
     2     1     6 ar  
     3     1     7 1   
     4     2     3 ar  
     5     2    22 1   
     6     3     4 ar  
     7     3    23 1   
     8     4     5 ar  
     9     4    10 1   
    10     5     6 ar  
    11     5    11 1   
    12     6    24 1   
    13     7     8 2   
    14     7     9 1   
    15     8    25 1   
    16     8    26 1   
    17     9    27 1   
    18     9    28 1   
    19    10    12 1   
    20    10    29 1   
    21    11    12 2   
    22    12    13 1   
    23    13    14 ar  
    24    13    20 ar  
    25    14    15 ar  
    26    14    30 1   
    27    15    16 1   
    28    15    18 ar  
    29    16    17 1   
    30    17    31 1   
    31    17    32 1   
    32    17    33 1   
    33    18    19 ar  
    34    18    34 1   
    35    19    20 ar  
    36    19    35 1   
    37    20    21 1   
    38    21    36 1   
@<TRIPOS>SUBSTRUCTURE
     1 123         1 TEMP              0 ****  ****    0 ROOT
