@<TRIPOS>MOLECULE
123
   36    38     1     0     0
SMALL
No Charge or Current Charge


@<TRIPOS>ATOM
      1 C1          -4.0130    -0.2600    -0.0180 ca         1 123      -0.287900
      2 C2          -4.0270     1.1630    -0.0200 ca         1 123      -0.081000
      3 C3          -2.8200     1.8930    -0.0210 ca         1 123      -0.082000
      4 C4          -1.6200     1.1740    -0.0220 ca         1 123      -0.041200
      5 C5          -1.5780    -0.1870    -0.0210 ca         1 123       0.072400
      6 C6          -2.7640    -0.9390    -0.0190 ca         1 123       0.012000
      7 C7          -5.2840    -1.0310    -0.0180 ce         1 123       0.528400
      8 N1          -6.3650    -0.5420    -0.6960 nv         1 123      -0.576200
      9 N2          -5.3580    -2.2150     0.6600 nv         1 123      -0.560300
     10 N3          -0.3370     1.6410    -0.0240 na         1 123      -0.277600
     11 N4          -0.2750    -0.6520    -0.0260 nc         1 123      -0.575100
     12 C8           0.4540     0.4870    -0.0270 cd         1 123       0.531400
     13 C9           1.9410     0.4660    -0.0320 ca         1 123      -0.145900
     14 C10          2.6190    -0.7800    -0.0350 ca         1 123      -0.064000
     15 C11          4.0210    -0.8540    -0.0390 ca         1 123       0.114100
     16 O3           4.6020    -2.1070    -0.0420 os         1 123      -0.333100
     17 CM3          6.0290    -2.2940    -0.0460 c3         1 123       0.143900
     18 C12          4.7790     0.3340    -0.0400 ca         1 123      -0.121000
     19 C13          4.1260     1.5770    -0.0380 ca         1 123      -0.163000
     20 C14          2.7220     1.6510    -0.0330 ca         1 123       0.126100
     21 O6           2.1460     2.8890    -0.0310 oh         1 123      -0.573100
     22 HC2         -4.9680     1.7090    -0.0070 ha         1 123       0.121000
     23 HC3         -2.8250     2.9810    -0.0190 ha         1 123       0.146000
     24 HC6         -2.7060    -2.0250    -0.0320 ha         1 123       0.138000
     25 HH11        -6.2020     0.2150    -1.3460 hn         1 123       0.375750
     26 HH12        -7.1410    -1.1620    -0.8840 hn         1 123       0.375750
     27 HH21        -6.2720    -2.6130     0.8300 hn         1 123       0.375750
     28 HH22        -4.6290    -2.4210     1.3290 hn         1 123       0.375750
     29 HN3          0.0100     2.5910    -0.0250 hn         1 123       0.396000
     30 H1           2.0610    -1.7130    -0.0340 ha         1 123       0.157000
     31 H3'1         6.4850    -1.8440     0.8450 h1         1 123       0.048033
     32 H3'2         6.2720    -3.3640    -0.0480 h1         1 123       0.048033
     33 H3'3         6.4800    -1.8430    -0.9390 h1         1 123       0.048033
     34 HC4          5.8660     0.3130    -0.0440 ha         1 123       0.133000
     35 HC5          4.7240     2.4860    -0.0390 ha         1 123       0.126000
     36 HO6          2.8590     3.5670    -0.0320 ho         1 123       0.489000
@<TRIPOS>BOND
     1     1     2 ar  
     2     1     6 ar  
     3     1     7 1   
     4     2     3 ar  
     5     2    22 1   
     6     3     4 ar  
     7     3    23 1   
     8     4     5 ar  
     9     4    10 1   
    10     5     6 ar  
    11     5    11 1   
    12     6    24 1   
    13     7     8 2   
    14     7     9 1   
    15     8    25 1   
    16     8    26 1   
    17     9    27 1   
    18     9    28 1   
    19    10    12 1   
    20    10    29 1   
    21    11    12 2   
    22    12    13 1   
    23    13    14 ar  
    24    13    20 ar  
    25    14    15 ar  
    26    14    30 1   
    27    15    16 1   
    28    15    18 ar  
    29    16    17 1   
    30    17    31 1   
    31    17    32 1   
    32    17    33 1   
    33    18    19 ar  
    34    18    34 1   
    35    19    20 ar  
    36    19    35 1   
    37    20    21 1   
    38    21    36 1   
@<TRIPOS>SUBSTRUCTURE
     1 123         1 TEMP              0 ****  ****    0 ROOT
