@<TRIPOS>MOLECULE
124
   33    35     1     0     0
SMALL
No Charge or Current Charge


@<TRIPOS>ATOM
      1 C1           3.4560    -0.0420     0.0590 ca         1 124      -0.300900
      2 C2           3.1960     1.3540     0.1770 ca         1 124      -0.076000
      3 C3           1.8730     1.8430     0.2090 ca         1 124      -0.097000
      4 C4           0.8240     0.9200     0.1180 ca         1 124      -0.008200
      5 C5           1.0660    -0.4150     0.0040 ca         1 124      -0.104800
      6 C6           2.3630    -0.9420    -0.0300 ca         1 124       0.009000
      7 C7           4.8520    -0.5520     0.0250 ce         1 124       0.530400
      8 N1           5.1430    -1.7630     0.5900 nv         1 124      -0.579200
      9 N2           5.8290     0.1970    -0.5680 nv         1 124      -0.563300
     10 N3          -0.5380     1.1680     0.1260 na         1 124      -0.180700
     11 C9          -0.2060    -1.0680    -0.0690 cc         1 124      -0.235200
     12 C8          -1.1900    -0.0820     0.0080 cd         1 124       0.062700
     13 C10         -2.6640    -0.2760    -0.0260 ca         1 124      -0.107800
     14 C11         -3.1910    -1.5830    -0.1480 ca         1 124      -0.046000
     15 C12         -4.5780    -1.8070    -0.1830 ca         1 124      -0.139000
     16 C13         -5.4680    -0.7290    -0.0980 ca         1 124      -0.038000
     17 C14         -4.9680     0.5750     0.0240 ca         1 124      -0.198000
     18 C15         -3.5830     0.8090     0.0600 ca         1 124       0.159100
     19 O6          -3.1610     2.1040     0.1800 oh         1 124      -0.559100
     20 HC2          4.0170     2.0650     0.2600 ha         1 124       0.118000
     21 HC3          1.6750     2.9080     0.3020 ha         1 124       0.142000
     22 HC6          2.5110    -2.0150    -0.1350 ha         1 124       0.122000
     23 HH11         6.1130    -1.9930     0.7570 hn         1 124       0.373750
     24 HH12         4.4530    -2.1710     1.2060 hn         1 124       0.373750
     25 HH21         5.5320     0.9690    -1.1490 hn         1 124       0.373750
     26 HH22         6.7110    -0.2440    -0.7890 hn         1 124       0.373750
     27 HN3         -1.0060     2.0650     0.2000 hn         1 124       0.381000
     28 HC9         -0.3710    -2.1360    -0.1660 ha         1 124       0.221000
     29 H1          -2.5350    -2.4450    -0.2170 ha         1 124       0.121000
     30 H2          -4.9610    -2.8210    -0.2780 ha         1 124       0.132000
     31 HC4         -6.5430    -0.9050    -0.1250 ha         1 124       0.130000
     32 HC5         -5.6690     1.4040     0.0890 ha         1 124       0.127000
     33 HO6         -3.9530     2.6840     0.2220 ho         1 124       0.485000
@<TRIPOS>BOND
     1     1     2 ar  
     2     1     6 ar  
     3     1     7 1   
     4     2     3 ar  
     5     2    20 1   
     6     3     4 ar  
     7     3    21 1   
     8     4     5 ar  
     9     4    10 1   
    10     5     6 ar  
    11     5    11 1   
    12     6    22 1   
    13     7     8 2   
    14     7     9 1   
    15     8    23 1   
    16     8    24 1   
    17     9    25 1   
    18     9    26 1   
    19    10    12 1   
    20    10    27 1   
    21    11    12 2   
    22    11    28 1   
    23    12    13 1   
    24    13    14 ar  
    25    13    18 ar  
    26    14    15 ar  
    27    14    29 1   
    28    15    16 ar  
    29    15    30 1   
    30    16    17 ar  
    31    16    31 1   
    32    17    18 ar  
    33    17    32 1   
    34    18    19 1   
    35    19    33 1   
@<TRIPOS>SUBSTRUCTURE
     1 124         1 TEMP              0 ****  ****    0 ROOT
