@<TRIPOS>MOLECULE
124
   33    35     1     0     0
SMALL
abcg2


@<TRIPOS>ATOM
      1 C1           3.3890    -0.0420     0.0470 ca         1 124      -0.300900
      2 C2           3.1340     1.3380    -0.1090 ca         1 124      -0.076000
      3 C3           1.8470     1.8200    -0.1690 ca         1 124      -0.097000
      4 C4           0.8060     0.8970    -0.0850 ca         1 124      -0.008200
      5 C5           1.0380    -0.4910     0.0630 ca         1 124      -0.104800
      6 C6           2.3480    -0.9570     0.1380 ca         1 124       0.009000
      7 C7           4.7740    -0.5150     0.1070 ce         1 124       0.530400
      8 N1           5.0780    -1.5350     0.8770 nv         1 124      -0.579200
      9 N2           5.6960     0.0860    -0.6090 nv         1 124      -0.563300
     10 N3          -0.5350     1.0820    -0.1210 na         1 124      -0.180700
     11 C9          -0.2380    -1.1180     0.1050 cc         1 124      -0.235200
     12 C8          -1.1810    -0.1270    -0.0120 cd         1 124       0.062700
     13 C10         -2.6360    -0.2710    -0.0540 ca         1 124      -0.107800
     14 C11         -3.1820    -1.4770    -0.5040 ca         1 124      -0.046000
     15 C12         -4.5490    -1.6890    -0.5430 ca         1 124      -0.139000
     16 C13         -5.4070    -0.6770    -0.1320 ca         1 124      -0.038000
     17 C14         -4.8940     0.5290     0.3150 ca         1 124      -0.198000
     18 C15         -3.5190     0.7380     0.3600 ca         1 124       0.159100
     19 O6          -2.9960     1.8960     0.8070 oh         1 124      -0.559100
     20 HC2          3.9570     2.0390    -0.1510 ha         1 124       0.118000
     21 HC3          1.6570     2.8800    -0.2690 ha         1 124       0.142000
     22 HC6          2.5400    -2.0190     0.2310 ha         1 124       0.122000
     23 HH11         6.0030    -1.9370     0.8970 hn         1 124       0.373750
     24 HH12         4.4070    -1.9020     1.5320 hn         1 124       0.373750
     25 HH21         5.4430     0.7710    -1.3030 hn         1 124       0.373750
     26 HH22         6.6700    -0.1680    -0.5520 hn         1 124       0.373750
     27 HN3         -0.9920     1.9730    -0.2260 hn         1 124       0.381000
     28 HC9         -0.4340    -2.1720     0.2280 ha         1 124       0.221000
     29 H1          -2.5160    -2.2570    -0.8470 ha         1 124       0.121000
     30 H2          -4.9400    -2.6310    -0.9030 ha         1 124       0.132000
     31 HC4         -6.4780    -0.8220    -0.1620 ha         1 124       0.130000
     32 HC5         -5.5650     1.3180     0.6370 ha         1 124       0.127000
     33 HO6         -3.6960     2.5160     1.0440 ho         1 124       0.485000
@<TRIPOS>BOND
     1     1     2 ar  
     2     1     6 ar  
     3     1     7 1   
     4     2     3 ar  
     5     2    20 1   
     6     3     4 ar  
     7     3    21 1   
     8     4     5 ar  
     9     4    10 1   
    10     5     6 ar  
    11     5    11 1   
    12     6    22 1   
    13     7     8 2   
    14     7     9 1   
    15     8    23 1   
    16     8    24 1   
    17     9    25 1   
    18     9    26 1   
    19    10    12 1   
    20    10    27 1   
    21    11    12 2   
    22    11    28 1   
    23    12    13 1   
    24    13    14 ar  
    25    13    18 ar  
    26    14    15 ar  
    27    14    29 1   
    28    15    16 ar  
    29    15    30 1   
    30    16    17 ar  
    31    16    31 1   
    32    17    18 ar  
    33    17    32 1   
    34    18    19 1   
    35    19    33 1   
@<TRIPOS>SUBSTRUCTURE
     1 124         1 TEMP              0 ****  ****    0 ROOT
