@<TRIPOS>MOLECULE
12B
   20    22     1     0     0
SMALL
No Charge or Current Charge


@<TRIPOS>ATOM
      1 CAA          0.2270     0.0020     0.0130 ca         1 12B      -0.089000
      2 CAB          0.1370     1.3720     0.0290 ca         1 12B       0.033800
      3 CAF          1.2910     2.1630     0.0350 ca         1 12B      -0.138000
      4 CAK          2.5410     1.4850     0.0230 ca         1 12B      -0.081000
      5 CAJ          2.6080     0.0610     0.0070 ca         1 12B      -0.116000
      6 CAD          1.4170    -0.7000     0.0020 ca         1 12B      -0.009000
      7 CAI          1.3290    -2.1090    -0.0140 ca         1 12B      -0.066000
      8 CAM          0.0480    -2.7360    -0.0170 ca         1 12B      -0.125000
      9 CAH         -1.1510    -1.9720    -0.0050 ca         1 12B      -0.019000
     10 CAC         -1.0280    -0.5750     0.0110 ca         1 12B      -0.136000
     11 CAG         -2.0350     0.5400     0.0260 c          1 12B       0.320800
     12 OAL         -3.2520     0.4770     0.0290 o          1 12B      -0.312000
     13 NAE         -1.2340     1.6690     0.0370 ns         1 12B      -0.342600
     14 HAF          1.2340     3.2490     0.0470 ha         1 12B       0.123000
     15 HAK          3.4620     2.0640     0.0270 ha         1 12B       0.114000
     16 HAJ          3.5750    -0.4380    -0.0020 ha         1 12B       0.119000
     17 HAI          2.2320    -2.7130    -0.0240 ha         1 12B       0.118000
     18 HAM         -0.0130    -3.8220    -0.0290 ha         1 12B       0.118000
     19 HAH         -2.1270    -2.4520    -0.0070 ha         1 12B       0.133000
     20 HAE         -1.6020     2.6140     0.0490 hn         1 12B       0.354000
@<TRIPOS>BOND
     1     1     2 ar  
     2     1     6 ar  
     3     1    10 ar  
     4     2     3 ar  
     5     2    13 1   
     6     3     4 ar  
     7     3    14 1   
     8     4     5 ar  
     9     4    15 1   
    10     5     6 ar  
    11     5    16 1   
    12     6     7 ar  
    13     7     8 ar  
    14     7    17 1   
    15     8     9 ar  
    16     8    18 1   
    17     9    10 ar  
    18     9    19 1   
    19    10    11 1   
    20    11    12 2   
    21    11    13 1   
    22    13    20 1   
@<TRIPOS>SUBSTRUCTURE
     1 12B         1 TEMP              0 ****  ****    0 ROOT
