@<TRIPOS>MOLECULE
12B
   20    22     1     0     0
SMALL
bcc


@<TRIPOS>ATOM
      1 CAA          0.2370    -0.0120     0.0140 ca         1 12B      -0.089000
      2 CAB          0.1290     1.3880     0.0300 ca         1 12B       0.033800
      3 CAF          1.2660     2.1430     0.0340 ca         1 12B      -0.156000
      4 CAK          2.5100     1.4500     0.0220 ca         1 12B      -0.099000
      5 CAJ          2.6190     0.0810     0.0070 ca         1 12B      -0.134000
      6 CAD          1.4380    -0.7100     0.0020 ca         1 12B      -0.009000
      7 CAI          1.3060    -2.1190    -0.0130 ca         1 12B      -0.084000
      8 CAM          0.0560    -2.7070    -0.0170 ca         1 12B      -0.143000
      9 CAH         -1.1420    -1.9570    -0.0060 ca         1 12B      -0.037000
     10 CAC         -1.0290    -0.5910     0.0110 ca         1 12B      -0.136000
     11 CAG         -2.0020     0.5360     0.0260 c          1 12B       0.320800
     12 OAL         -3.2150     0.4980     0.0290 o          1 12B      -0.312000
     13 NAE         -1.2280     1.6810     0.0360 ns         1 12B      -0.292300
     14 HAF          1.2490     3.2250     0.0450 ha         1 12B       0.141000
     15 HAK          3.4140     2.0460     0.0260 ha         1 12B       0.132000
     16 HAJ          3.5940    -0.3880    -0.0020 ha         1 12B       0.137000
     17 HAI          2.1880    -2.7470    -0.0220 ha         1 12B       0.136000
     18 HAM         -0.0110    -3.7870    -0.0290 ha         1 12B       0.136000
     19 HAH         -2.1000    -2.4610    -0.0100 ha         1 12B       0.151000
     20 HAE         -1.6200     2.6090     0.0530 hn         1 12B       0.303700
@<TRIPOS>BOND
     1     1     2 ar  
     2     1     6 ar  
     3     1    10 ar  
     4     2     3 ar  
     5     2    13 1   
     6     3     4 ar  
     7     3    14 1   
     8     4     5 ar  
     9     4    15 1   
    10     5     6 ar  
    11     5    16 1   
    12     6     7 ar  
    13     7     8 ar  
    14     7    17 1   
    15     8     9 ar  
    16     8    18 1   
    17     9    10 ar  
    18     9    19 1   
    19    10    11 1   
    20    11    12 2   
    21    11    13 1   
    22    13    20 1   
@<TRIPOS>SUBSTRUCTURE
     1 12B         1 TEMP              0 ****  ****    0 ROOT
