@<TRIPOS>MOLECULE
12C
   52    57     1     0     0
SMALL
No Charge or Current Charge


@<TRIPOS>ATOM
      1 C1          -2.0900     1.0990    -0.1630 ca         1 12C      -0.156800
      2 C2          -3.1680     0.3240    -0.6570 ca         1 12C      -0.040000
      3 C3          -4.4910     0.7770    -0.5210 ca         1 12C       0.067000
      4 Cl          -5.8190    -0.2030    -1.1310 cl         1 12C      -0.192000
      5 C4          -4.7570     2.0110     0.0930 ca         1 12C      -0.037000
      6 C5          -3.6900     2.8000     0.5560 ca         1 12C      -0.170000
      7 C6          -2.3710     2.3400     0.4150 ca         1 12C       0.125600
      8 N1          -1.2980     3.1220     0.8280 ns         1 12C      -0.371100
      9 C7           0.0300     2.8460     0.6980 c          1 12C       0.604200
     10 O1           0.8440     3.6730     1.0780 o          1 12C      -0.605000
     11 C8           0.3610     1.5270     0.0920 cc         1 12C      -0.423800
     12 C9           1.7550     1.1680    -0.1040 cc         1 12C       0.534100
     13 C10         -0.6790     0.6690    -0.2710 cd         1 12C       0.345800
     14 N2          -0.3790    -0.6060    -0.6620 nu         1 12C      -0.799200
     15 C11         -0.8120    -1.7590     0.1550 c6         1 12C       0.195500
     16 N3           2.7890     2.0010     0.3060 na         1 12C      -0.294600
     17 C12          3.9670     1.4030    -0.0100 ca         1 12C      -0.078200
     18 C13          3.6470     0.2270    -0.6150 ca         1 12C       0.091400
     19 N4           2.2690     0.0630    -0.6920 nd         1 12C      -0.681100
     20 C14          5.2860     1.8220     0.1990 ca         1 12C      -0.105000
     21 C15          6.3150     0.9660    -0.2490 ca         1 12C      -0.105000
     22 C16          5.9980    -0.2610    -0.8810 ca         1 12C      -0.129000
     23 C17          4.6490    -0.6410    -1.0690 ca         1 12C      -0.068000
     24 C18          0.0770    -1.9420     1.4430 c6         1 12C       0.127800
     25 N5           0.6820    -3.3160     1.5060 n3         1 12C      -0.674600
     26 C19          1.5690    -3.5170     0.3170 c6         1 12C       0.142800
     27 C20          0.7510    -3.4000    -1.0100 c6         1 12C      -0.108400
     28 C21         -0.4080    -4.3430     1.5010 c6         1 12C       0.142800
     29 C22         -1.2760    -4.2250     0.2050 c6         1 12C      -0.108400
     30 C23         -0.7390    -3.0690    -0.6880 c6         1 12C      -0.075700
     31 H2          -2.9910    -0.6210    -1.1620 ha         1 12C       0.139000
     32 H4          -5.7820     2.3600     0.1950 ha         1 12C       0.135000
     33 H5          -3.8910     3.7660     1.0130 ha         1 12C       0.128000
     34 HN1         -1.5160     4.0170     1.2440 hn         1 12C       0.333500
     35 HN2          0.6140    -0.6490    -0.9230 hn         1 12C       0.550000
     36 H11         -1.8500    -1.6260     0.4920 h1         1 12C       0.065700
     37 HN3          2.6440     2.8970     0.7560 hn         1 12C       0.394000
     38 H14          5.5110     2.7680     0.6860 ha         1 12C       0.119000
     39 H15          7.3560     1.2510    -0.1080 ha         1 12C       0.111000
     40 H16          6.7960    -0.9160    -1.2230 ha         1 12C       0.111000
     41 H17          4.3940    -1.5800    -1.5530 ha         1 12C       0.120000
     42 H181         0.8700    -1.1800     1.4640 h1         1 12C       0.069200
     43 H182        -0.5480    -1.7580     2.3300 h1         1 12C       0.069200
     44 H191         2.3780    -2.7710     0.3120 h1         1 12C       0.058950
     45 H192         2.0510    -4.5050     0.3600 h1         1 12C       0.058950
     46 H201         1.1940    -2.6330    -1.6600 hc         1 12C       0.051700
     47 H202         0.8150    -4.3440    -1.5680 hc         1 12C       0.051700
     48 H211         0.0200    -5.3550     1.5600 h1         1 12C       0.058950
     49 H212        -1.0540    -4.2220     2.3830 h1         1 12C       0.058950
     50 H221        -2.3270    -4.0460     0.4730 hc         1 12C       0.051700
     51 H222        -1.2550    -5.1750    -0.3470 hc         1 12C       0.051700
     52 H23         -1.3350    -2.9790    -1.6070 hc         1 12C       0.060700
@<TRIPOS>BOND
     1     1     2 ar  
     2     1     7 ar  
     3     1    13 1   
     4     2     3 ar  
     5     2    31 1   
     6     3     4 1   
     7     3     5 ar  
     8     5     6 ar  
     9     5    32 1   
    10     6     7 ar  
    11     6    33 1   
    12     7     8 1   
    13     8     9 1   
    14     8    34 1   
    15     9    10 2   
    16     9    11 1   
    17    11    12 1   
    18    11    13 2   
    19    12    16 1   
    20    12    19 2   
    21    13    14 1   
    22    14    15 1   
    23    14    35 1   
    24    15    24 1   
    25    15    30 1   
    26    15    36 1   
    27    16    17 1   
    28    16    37 1   
    29    17    18 ar  
    30    17    20 ar  
    31    18    19 1   
    32    18    23 ar  
    33    20    21 ar  
    34    20    38 1   
    35    21    22 ar  
    36    21    39 1   
    37    22    23 ar  
    38    22    40 1   
    39    23    41 1   
    40    24    25 1   
    41    24    42 1   
    42    24    43 1   
    43    25    26 1   
    44    25    28 1   
    45    26    27 1   
    46    26    44 1   
    47    26    45 1   
    48    27    30 1   
    49    27    46 1   
    50    27    47 1   
    51    28    29 1   
    52    28    48 1   
    53    28    49 1   
    54    29    30 1   
    55    29    50 1   
    56    29    51 1   
    57    30    52 1   
@<TRIPOS>SUBSTRUCTURE
     1 12C         1 TEMP              0 ****  ****    0 ROOT
