@<TRIPOS>MOLECULE
12C
   52    57     1     0     0
SMALL
bcc


@<TRIPOS>ATOM
      1 C1          -1.9130     1.0160     0.0210 ca         1 12C      -0.156800
      2 C2          -2.9410     0.1320    -0.3380 ca         1 12C      -0.058000
      3 C3          -4.2550     0.5330    -0.3020 ca         1 12C      -0.024600
      4 CL          -5.5010    -0.5810    -0.7550 cl         1 12C      -0.100400
      5 C4          -4.5980     1.8300     0.0780 ca         1 12C      -0.055000
      6 C5          -3.6010     2.7310     0.3640 ca         1 12C      -0.188000
      7 C6          -2.2580     2.3440     0.3020 ca         1 12C       0.125600
      8 N1          -1.2760     3.2720     0.4810 ns         1 12C      -0.438100
      9 C7           0.0590     3.0500     0.2820 c          1 12C       0.746700
     10 O1           0.8330     4.0080     0.3570 o          1 12C      -0.680500
     11 C8           0.4540     1.6810     0.0500 cc         1 12C      -0.423800
     12 C9           1.8730     1.3900    -0.0520 cc         1 12C       0.534100
     13 C10         -0.5030     0.6470     0.0260 cd         1 12C       0.345800
     14 N2          -0.1170    -0.6300    -0.0310 nu         1 12C      -0.744000
     15 C11         -0.7570    -1.8180     0.5180 c6         1 12C       0.195500
     16 N3           2.8480     2.3360     0.0110 na         1 12C      -0.244300
     17 C12          4.0560     1.7120    -0.1280 ca         1 12C      -0.078200
     18 C13          3.7450     0.3500    -0.2740 ca         1 12C       0.091400
     19 N4           2.3870     0.1850    -0.2260 nd         1 12C      -0.681100
     20 C14          5.3630     2.1830    -0.1400 ca         1 12C      -0.123000
     21 C15          6.3640     1.2390    -0.3060 ca         1 12C      -0.123000
     22 C16          6.0690    -0.1250    -0.4530 ca         1 12C      -0.147000
     23 C17          4.7640    -0.5870    -0.4380 ca         1 12C      -0.086000
     24 C18          0.1510    -2.4580     1.6110 c6         1 12C       0.127800
     25 N5           0.6010    -3.7870     1.2420 n3         1 12C      -0.674600
     26 C19          1.3000    -3.7280    -0.0370 c6         1 12C       0.142800
     27 C20          0.3500    -3.2880    -1.1770 c6         1 12C      -0.108400
     28 C21         -0.5510    -4.6760     1.1310 c6         1 12C       0.142800
     29 C22         -1.5940    -4.1200     0.1320 c6         1 12C      -0.108400
     30 C23         -0.9890    -2.8930    -0.5520 c6         1 12C      -0.075700
     31 H2          -2.7100    -0.8610    -0.6910 ha         1 12C       0.157000
     32 H4          -5.6350     2.1350     0.1220 ha         1 12C       0.153000
     33 H5          -3.8530     3.7530     0.6180 ha         1 12C       0.146000
     34 HN1         -1.5450     4.2280     0.6660 hn         1 12C       0.333500
     35 HN2          0.9000    -0.7200    -0.1400 hn         1 12C       0.494800
     36 H11         -1.7040    -1.5360     0.9780 h1         1 12C       0.065700
     37 HN3          2.6520     3.3200     0.1350 hn         1 12C       0.343700
     38 H14          5.5910     3.2340    -0.0260 ha         1 12C       0.137000
     39 H15          7.3970     1.5600    -0.3210 ha         1 12C       0.129000
     40 H16          6.8810    -0.8280    -0.5790 ha         1 12C       0.129000
     41 H17          4.5400    -1.6400    -0.5500 ha         1 12C       0.138000
     42 H181         1.0220    -1.8240     1.8020 h1         1 12C       0.069200
     43 H182        -0.3980    -2.5230     2.5530 h1         1 12C       0.069200
     44 H191         2.1360    -3.0310     0.0650 h1         1 12C       0.058950
     45 H192         1.7310    -4.7100    -0.2450 h1         1 12C       0.058950
     46 H201         0.7740    -2.4590    -1.7480 hc         1 12C       0.051700
     47 H202         0.1880    -4.0990    -1.8890 hc         1 12C       0.051700
     48 H211        -0.1930    -5.6590     0.8180 h1         1 12C       0.058950
     49 H212        -0.9900    -4.8010     2.1230 h1         1 12C       0.058950
     50 H221        -2.5210    -3.8460     0.6430 hc         1 12C       0.051700
     51 H222        -1.8550    -4.8670    -0.6200 hc         1 12C       0.051700
     52 H23         -1.6640    -2.5210    -1.3270 hc         1 12C       0.060700
@<TRIPOS>BOND
     1     1     2 ar  
     2     1     7 ar  
     3     1    13 1   
     4     2     3 ar  
     5     2    31 1   
     6     3     4 1   
     7     3     5 ar  
     8     5     6 ar  
     9     5    32 1   
    10     6     7 ar  
    11     6    33 1   
    12     7     8 1   
    13     8     9 1   
    14     8    34 1   
    15     9    10 2   
    16     9    11 1   
    17    11    12 1   
    18    11    13 2   
    19    12    16 1   
    20    12    19 2   
    21    13    14 1   
    22    14    15 1   
    23    14    35 1   
    24    15    24 1   
    25    15    30 1   
    26    15    36 1   
    27    16    17 1   
    28    16    37 1   
    29    17    18 ar  
    30    17    20 ar  
    31    18    19 1   
    32    18    23 ar  
    33    20    21 ar  
    34    20    38 1   
    35    21    22 ar  
    36    21    39 1   
    37    22    23 ar  
    38    22    40 1   
    39    23    41 1   
    40    24    25 1   
    41    24    42 1   
    42    24    43 1   
    43    25    26 1   
    44    25    28 1   
    45    26    27 1   
    46    26    44 1   
    47    26    45 1   
    48    27    30 1   
    49    27    46 1   
    50    27    47 1   
    51    28    29 1   
    52    28    48 1   
    53    28    49 1   
    54    29    30 1   
    55    29    50 1   
    56    29    51 1   
    57    30    52 1   
@<TRIPOS>SUBSTRUCTURE
     1 12C         1 TEMP              0 ****  ****    0 ROOT
