@<TRIPOS>MOLECULE
12E
   41    42     1     0     0
SMALL
abcg2


@<TRIPOS>ATOM
      1 C1          -1.6200    -0.2040     0.5550 c6         1 12E       0.298700
      2 N1          -0.2380    -0.5570     0.5890 ns         1 12E      -0.428900
      3 S1          -0.6910    -3.0600     1.4410 s          1 12E      -0.601400
      4 C2          -1.8210     1.2340     1.0360 c6         1 12E       0.101300
      5 N2           1.5670    -1.9320     0.7800 ns         1 12E      -0.226900
      6 O2          -1.4640     1.3790     2.3860 oh         1 12E      -0.713000
      7 C3          -3.2970     1.5880     0.9080 c6         1 12E       0.139300
      8 N3           2.3440    -0.9400     0.3360 n2         1 12E      -0.476300
      9 O3          -3.5400     2.9430     1.1940 oh         1 12E      -0.665000
     10 C4          -3.7970     1.3190    -0.5070 c6         1 12E       0.142300
     11 N4           6.2640     1.8580    -1.1560 nb         1 12E      -0.652000
     12 O4          -5.1900     1.4870    -0.5940 oh         1 12E      -0.714000
     13 C5          -3.4630    -0.1180    -0.9080 c6         1 12E       0.179300
     14 O5          -2.0740    -0.3370    -0.7690 os         1 12E      -0.455000
     15 C6          -3.8360    -0.4020    -2.3470 c3         1 12E       0.172600
     16 O6          -3.5940    -1.7610    -2.6200 oh         1 12E      -0.704000
     17 C7           0.2270    -1.7720     0.9040 cs         1 12E       0.490400
     18 C8           3.5970    -1.1420     0.2480 ce         1 12E       0.400800
     19 C9           4.4870    -0.0930    -0.2380 ca         1 12E      -0.094900
     20 C10          5.8550    -0.3380    -0.3060 ca         1 12E      -0.140000
     21 C11          6.6950     0.6640    -0.7690 ca         1 12E       0.334900
     22 C12          4.9550     2.0890    -1.0890 ca         1 12E       0.334900
     23 C13          4.0320     1.1610    -0.6440 ca         1 12E      -0.140000
     24 H1          -2.1560    -0.8910     1.2220 h2         1 12E       0.107700
     25 HN1          0.4330     0.1040     0.2150 hn         1 12E       0.333500
     26 H2          -1.2390     1.9080     0.3880 h1         1 12E       0.051700
     27 HN2          1.9590    -2.8320     1.0360 hn         1 12E       0.350500
     28 HO2         -0.5040     1.3910     2.4590 ho         1 12E       0.516000
     29 H3          -3.8630     0.9370     1.5940 h1         1 12E       0.061700
     30 HO3         -3.4240     3.0840     2.1390 ho         1 12E       0.467000
     31 H4          -3.2730     2.0010    -1.1960 h1         1 12E       0.051700
     32 HO4         -5.4010     2.3870    -0.3230 ho         1 12E       0.526000
     33 H5          -4.0190    -0.8050    -0.2490 h1         1 12E       0.072700
     34 H6          -4.8900    -0.1420    -2.4860 h1         1 12E       0.035700
     35 H6A         -3.2510     0.2570    -3.0030 h1         1 12E       0.035700
     36 HO6         -3.8750    -1.9360    -3.5220 ho         1 12E       0.504000
     37 H8           4.0530    -2.0930     0.5290 h4         1 12E       0.000800
     38 H10          6.2670    -1.2910    -0.0010 ha         1 12E       0.128500
     39 H11          7.7630     0.4890    -0.8270 h4         1 12E       0.023600
     40 H12          4.6210     3.0690    -1.4090 h4         1 12E       0.023600
     41 H13          2.9810     1.4140    -0.6170 ha         1 12E       0.128500
@<TRIPOS>BOND
     1     1     2 1   
     2     1     4 1   
     3     1    14 1   
     4     1    24 1   
     5     2    17 1   
     6     2    25 1   
     7     3    17 2   
     8     4     6 1   
     9     4     7 1   
    10     4    26 1   
    11     5     8 1   
    12     5    17 1   
    13     5    27 1   
    14     6    28 1   
    15     7     9 1   
    16     7    10 1   
    17     7    29 1   
    18     8    18 2   
    19     9    30 1   
    20    10    12 1   
    21    10    13 1   
    22    10    31 1   
    23    11    21 ar  
    24    11    22 ar  
    25    12    32 1   
    26    13    14 1   
    27    13    15 1   
    28    13    33 1   
    29    15    16 1   
    30    15    34 1   
    31    15    35 1   
    32    16    36 1   
    33    18    19 1   
    34    18    37 1   
    35    19    20 ar  
    36    19    23 ar  
    37    20    21 ar  
    38    20    38 1   
    39    21    39 1   
    40    22    23 ar  
    41    22    40 1   
    42    23    41 1   
@<TRIPOS>SUBSTRUCTURE
     1 12E         1 TEMP              0 ****  ****    0 ROOT
