@<TRIPOS>MOLECULE
12E
   41    42     1     0     0
SMALL
No Charge or Current Charge


@<TRIPOS>ATOM
      1 C1          -1.4830    -0.4040     0.4750 c6         1 12E       0.298700
      2 N1          -0.1440    -0.9190     0.2100 ns         1 12E      -0.428900
      3 S1          -0.7350    -3.4870     0.7270 s          1 12E      -0.601400
      4 C2          -1.4450     1.1030     0.9020 c6         1 12E       0.101300
      5 N2           1.5350    -2.4240    -0.2150 ns         1 12E      -0.226900
      6 O2          -0.7520     1.3080     2.1570 oh         1 12E      -0.713000
      7 C3          -2.9050     1.6270     1.0260 c6         1 12E       0.139300
      8 N3           2.4050    -1.4170    -0.6180 n2         1 12E      -0.476300
      9 O3          -2.9010     3.0200     1.3830 oh         1 12E      -0.665000
     10 C4          -3.6810     1.3990    -0.3030 c6         1 12E       0.142300
     11 N4           6.0600     2.2140    -0.7810 nb         1 12E      -0.652000
     12 O4          -5.0380     1.8580    -0.1560 oh         1 12E      -0.714000
     13 C5          -3.6040    -0.1120    -0.6890 c6         1 12E       0.179300
     14 O5          -2.2120    -0.5270    -0.7630 os         1 12E      -0.455000
     15 C6          -4.2850    -0.4090    -2.0660 c3         1 12E       0.172600
     16 O6          -4.1880    -1.7910    -2.4710 oh         1 12E      -0.704000
     17 C7           0.2400    -2.2280     0.2150 cs         1 12E       0.490400
     18 C8           3.3490    -1.0310     0.1880 ce         1 12E       0.400800
     19 C9           4.2760     0.0880    -0.1620 ca         1 12E      -0.094900
     20 C10          5.2770     0.4960     0.7420 ca         1 12E      -0.140000
     21 C11          6.1390     1.5520     0.3970 ca         1 12E       0.334900
     22 C12          5.1000     1.8280    -1.6540 ca         1 12E       0.334900
     23 C13          4.1980     0.7830    -1.3890 ca         1 12E      -0.140000
     24 H1          -1.9630    -1.0060     1.2630 h2         1 12E       0.107700
     25 HN1          0.5380    -0.2820    -0.1810 hn         1 12E       0.333500
     26 H2          -0.9430     1.6700     0.1030 h1         1 12E       0.051700
     27 HN2          1.8310    -3.3990    -0.2370 hn         1 12E       0.350500
     28 HO2          0.1600     0.9450     2.0610 ho         1 12E       0.516000
     29 H3          -3.4030     1.0450     1.8170 h1         1 12E       0.061700
     30 HO3         -2.1540     3.1080     2.0210 ho         1 12E       0.467000
     31 H4          -3.1810     1.9760    -1.0960 h1         1 12E       0.051700
     32 HO4         -4.9660     2.6970     0.3630 ho         1 12E       0.526000
     33 H5          -4.1140    -0.7120     0.0800 h1         1 12E       0.072700
     34 H6          -5.3410    -0.1150    -1.9970 h1         1 12E       0.035700
     35 H6A         -3.8180     0.2380    -2.8220 h1         1 12E       0.035700
     36 HO6         -4.5820    -1.8550    -3.3720 ho         1 12E       0.504000
     37 H8           3.4910    -1.5000     1.1650 h4         1 12E       0.000800
     38 H10          5.3930     0.0050     1.7050 ha         1 12E       0.128500
     39 H11          6.9180     1.8780     1.0850 h4         1 12E       0.023600
     40 H12          5.0540     2.3740    -2.5960 h4         1 12E       0.023600
     41 H13          3.4520     0.5250    -2.1360 ha         1 12E       0.128500
@<TRIPOS>BOND
     1     1     2 1   
     2     1     4 1   
     3     1    14 1   
     4     1    24 1   
     5     2    17 1   
     6     2    25 1   
     7     3    17 2   
     8     4     6 1   
     9     4     7 1   
    10     4    26 1   
    11     5     8 1   
    12     5    17 1   
    13     5    27 1   
    14     6    28 1   
    15     7     9 1   
    16     7    10 1   
    17     7    29 1   
    18     8    18 2   
    19     9    30 1   
    20    10    12 1   
    21    10    13 1   
    22    10    31 1   
    23    11    21 ar  
    24    11    22 ar  
    25    12    32 1   
    26    13    14 1   
    27    13    15 1   
    28    13    33 1   
    29    15    16 1   
    30    15    34 1   
    31    15    35 1   
    32    16    36 1   
    33    18    19 1   
    34    18    37 1   
    35    19    20 ar  
    36    19    23 ar  
    37    20    21 ar  
    38    20    38 1   
    39    21    39 1   
    40    22    23 ar  
    41    22    40 1   
    42    23    41 1   
@<TRIPOS>SUBSTRUCTURE
     1 12E         1 TEMP              0 ****  ****    0 ROOT
