@<TRIPOS>MOLECULE
12F
  118   126     1     0     0
SMALL
No Charge or Current Charge


@<TRIPOS>ATOM
      1 C01         -7.5700     3.6790    -3.1620 ca         1 12F      -0.086300
      2 O01         -6.1100     1.7910    -2.8750 os         1 12F      -0.350100
      3 C02         -6.7000     4.7620    -3.4040 ca         1 12F      -0.079500
      4 C03         -7.0340     6.0540    -2.9570 ca         1 12F      -0.116000
      5 C04         -8.2390     6.2710    -2.2660 ca         1 12F      -0.104000
      6 C05         -9.1090     5.1940    -2.0200 ca         1 12F      -0.116000
      7 C06         -8.7760     3.9020    -2.4660 ca         1 12F      -0.079500
      8 C07         -7.2130     2.2830    -3.6570 c3         1 12F       0.210900
      9 C1           5.4880     0.9500     0.3670 c5         1 12F       0.329300
     10 C2           4.8460     1.9090    -0.7010 c5         1 12F       0.062300
     11 O2           4.8340     3.2980    -0.3110 oh         1 12F      -0.706000
     12 C3           3.4070     1.3200    -0.7720 c5         1 12F       0.097300
     13 O3           2.6320     1.7510     0.3540 oh         1 12F      -0.714000
     14 C4           3.7420    -0.2100    -0.7460 c5         1 12F       0.140300
     15 O4           4.7830    -0.3100     0.2640 os         1 12F      -0.385000
     16 C5           4.2560    -0.7460    -2.1230 c3         1 12F       0.225600
     17 O5           4.0120    -2.1550    -2.2890 os         1 12F      -0.580400
     18 CAL         -3.7510    -1.0160    -2.3750 ca         1 12F      -0.085000
     19 CAM         -4.3650     0.2500    -2.2180 ca         1 12F      -0.082300
     20 CAN         -4.2040    -1.9500    -3.3140 ca         1 12F      -0.080000
     21 CAO         -5.4860     0.5650    -3.0510 ca         1 12F       0.077100
     22 CAP         -5.2930    -1.6400    -4.1310 ca         1 12F      -0.125000
     23 CAQ         -5.9330    -0.4000    -4.0080 ca         1 12F       0.131000
     24 CAR          7.7720     0.5800     1.3790 ca         1 12F       0.138500
     25 CAS          8.6460     0.4130     3.4870 ca         1 12F       0.143900
     26 CAT         10.1160     0.2860     1.7340 ca         1 12F       0.434900
     27 CAU          9.0300     0.4440     0.8450 ca         1 12F      -0.045600
     28 CAV          7.7180     0.6490    -0.8480 cc         1 12F       0.452700
     29 CAW          1.5330    -4.8470     1.5750 c3         1 12F       0.203600
     30 CAX          0.9920    -3.4040     1.2820 c3         1 12F       0.125300
     31 CAY         -0.5050    -3.2550     1.7260 c3         1 12F       0.093300
     32 CAZ         -1.1330    -1.8500     1.4440 c3         1 12F       0.132300
     33 CBB         -4.4030    -0.2780     0.8930 c2         1 12F       0.731200
     34 CBC         -6.4690    -0.9920     0.0930 c          1 12F       0.738400
     35 CBD         -6.0530     1.4450     0.0940 c          1 12F       0.585000
     36 CBE         -4.5290     1.1160     0.2290 c5         1 12F       0.065900
     37 CBF         -2.8640     0.6370     2.5450 ca         1 12F       0.250000
     38 CBG         -3.1400     1.9840     2.1720 ca         1 12F       0.271000
     39 CBH         -2.1930     0.4050     3.7690 ca         1 12F      -0.108000
     40 CBI         -2.7350     3.0400     3.0080 ca         1 12F      -0.119000
     41 CBJ         -2.0580     2.7970     4.2170 ca         1 12F      -0.075300
     42 CBK         -1.6380     3.9770     5.0890 c3         1 12F      -0.040800
     43 CBL         -3.7320     1.1490    -1.1160 c5         1 12F      -0.016400
     44 CBM         -3.6780     2.6780    -1.4050 c5         1 12F      -0.124400
     45 CBN         -3.2280     3.2150    -0.0130 c5         1 12F       0.462500
     46 CBP         -1.7880     1.4670     4.6020 ca         1 12F      -0.072300
     47 FBR         -6.9870    -0.1800    -4.8280 f          1 12F      -0.184000
     48 NBS          6.9320     0.7160     0.3100 na         1 12F      -0.277300
     49 NBT          7.5480     0.5710     2.7090 nb         1 12F      -0.214000
     50 NBU          9.9260     0.2680     3.0640 nb         1 12F      -0.331000
     51 NBW          9.0230     0.4840    -0.5520 nd         1 12F      -0.549100
     52 NBX         -3.2850    -0.4480     1.7070 nh         1 12F      -0.712400
     53 NBY         -5.3090    -1.1930     0.8110 ne         1 12F      -0.749100
     54 NBZ         -6.7860     0.3110    -0.0990 ns         1 12F      -0.501500
     55 NCA         -3.8120     2.2570     0.9530 nh         1 12F      -0.795400
     56 OCF          4.7220    -4.5650    -2.1750 o          1 12F      -0.849000
     57 OCG          6.1440    -2.8370    -1.0740 o          1 12F      -0.849000
     58 OCH          3.7360    -3.2740    -0.2090 os         1 12F      -0.701800
     59 OCI          5.3100    -5.0950     0.8170 o          1 12F      -0.848000
     60 OCJ          4.1460    -3.4970     2.2850 o          1 12F      -0.848000
     61 OCK          2.7730    -5.1440     0.8970 os         1 12F      -0.566400
     62 OCL          1.1320    -3.0910    -0.1230 oh         1 12F      -0.726000
     63 OCM         -0.6300    -3.5660     3.1300 oh         1 12F      -0.651000
     64 OCN         -0.9550    -1.5300     0.0530 oh         1 12F      -0.752000
     65 OCP         -6.6030     2.5370     0.1490 o          1 12F      -0.488000
     66 OCQ         -3.7200     4.5130     0.2340 oh         1 12F      -0.643000
     67 PCR          4.7590    -3.2840    -1.4090 p5         1 12F       1.477800
     68 PCS          4.1030    -4.2350     0.9910 p5         1 12F       1.457800
     69 H02         -5.7660     4.6020    -3.9390 ha         1 12F       0.115000
     70 H03         -6.3600     6.8870    -3.1470 ha         1 12F       0.108000
     71 H04         -8.4980     7.2710    -1.9200 ha         1 12F       0.104000
     72 H05        -10.0420     5.3600    -1.4850 ha         1 12F       0.108000
     73 H06         -9.4570     3.0750    -2.2700 ha         1 12F       0.115000
     74 H07         -8.0870     1.6270    -3.5520 h1         1 12F       0.037700
     75 H07A        -6.9400     2.3430    -4.7190 h1         1 12F       0.037700
     76 H2           5.3460     1.7960    -1.6730 h1         1 12F       0.070700
     77 HO2          4.7540     3.8440    -1.1300 ho         1 12F       0.493000
     78 H3           2.9020     1.6060    -1.7050 h1         1 12F       0.037700
     79 HO3          3.0190     2.6280     0.5940 ho         1 12F       0.500000
     80 H4           2.8660    -0.7960    -0.4390 h1         1 12F       0.086700
     81 H5           3.7280    -0.2070    -2.9200 h1         1 12F       0.014200
     82 H5'A         5.3240    -0.5230    -2.2390 h1         1 12F       0.014200
     83 HAL         -2.9010    -1.2890    -1.7540 ha         1 12F       0.150000
     84 HAN         -3.7090    -2.9150    -3.4060 ha         1 12F       0.132000
     85 HAP         -5.6480    -2.3630    -4.8610 ha         1 12F       0.130000
     86 HAS          8.4840     0.4010     4.5640 h5         1 12F       0.013100
     87 HAV          7.3000     0.7270    -1.8460 h5         1 12F       0.126800
     88 HAW          1.6610    -4.9690     2.6580 h1         1 12F       0.024700
     89 HAWA         0.7730    -5.5730     1.2600 h1         1 12F       0.024700
     90 HAX          1.5870    -2.6940     1.8740 h1         1 12F       0.075700
     91 HAY         -1.0850    -3.9890     1.1480 h1         1 12F       0.081700
     92 HAZ         -0.5930    -1.1140     2.0550 h1         1 12F       0.033700
     93 HBH         -1.9880    -0.6090     4.0940 ha         1 12F       0.128000
     94 HBI         -2.9590     4.0620     2.7180 ha         1 12F       0.126000
     95 HBK         -2.1340     3.9420     6.0660 hc         1 12F       0.038033
     96 HBKA        -0.5550     3.9760     5.2590 hc         1 12F       0.038033
     97 HBKB        -1.8940     4.9380     4.6280 hc         1 12F       0.038033
     98 HBL         -2.7030     0.8120    -0.9260 hc         1 12F       0.084700
     99 HBM         -2.9650     2.9330    -2.1960 hc         1 12F       0.070700
    100 HBMA        -4.6340     3.1290    -1.6700 hc         1 12F       0.070700
    101 HNBV        11.5490    -0.0830     0.3350 hn         1 12F       0.490000
    102 HNBA        12.0790    -0.2460     1.9770 hn         1 12F       0.490000
    103 HNBZ        -7.7330     0.4650    -0.4070 hn         1 12F       0.333500
    104 HOCL         2.1090    -3.2030    -0.3160 ho         1 12F       0.514000
    105 HOCM        -0.0290    -2.9710     3.6310 ho         1 12F       0.445000
    106 HOCN        -0.1400    -2.0560    -0.2090 ho         1 12F       0.542000
    107 HOCQ        -3.3380     5.0750    -0.4690 ho         1 12F       0.441000
    108 HCBN        -2.1310     3.2050     0.0590 h2         1 12F       0.034700
    109 CBO         -1.0680     1.1580     5.9130 c3         1 12F      -0.044800
    110 CBA         -2.6500    -1.7940     1.8190 c3         1 12F       0.209800
    111 NBV         11.4050     0.1350     1.3190 nv         1 12F      -1.079900
    112 HBA         -3.1580    -2.5080     1.1550 h1         1 12F       0.089200
    113 HBAA        -2.8030    -2.1920     2.8310 h1         1 12F       0.089200
    114 HBO         -0.0610     1.5930     5.9230 hc         1 12F       0.043700
    115 HBOA        -1.6180     1.5620     6.7710 hc         1 12F       0.043700
    116 HBOB        -0.9580     0.0790     6.0770 hc         1 12F       0.043700
    117 OCO         -7.2070    -1.8820    -0.2750 o          1 12F      -0.520000
    118 H1           5.2950     1.3660     1.3640 h2         1 12F       0.095700
@<TRIPOS>BOND
     1     1     3 ar  
     2     1     7 ar  
     3     1     8 1   
     4     2     8 1   
     5     2    21 1   
     6     3     4 ar  
     7     3    69 1   
     8     4     5 ar  
     9     4    70 1   
    10     5     6 ar  
    11     5    71 1   
    12     6     7 ar  
    13     6    72 1   
    14     7    73 1   
    15     8    74 1   
    16     8    75 1   
    17     9    10 1   
    18     9    15 1   
    19     9    48 1   
    20     9   118 1   
    21    10    11 1   
    22    10    12 1   
    23    10    76 1   
    24    11    77 1   
    25    12    13 1   
    26    12    14 1   
    27    12    78 1   
    28    13    79 1   
    29    14    15 1   
    30    14    16 1   
    31    14    80 1   
    32    16    17 1   
    33    16    81 1   
    34    16    82 1   
    35    17    67 1   
    36    18    19 ar  
    37    18    20 ar  
    38    18    83 1   
    39    19    21 ar  
    40    19    43 1   
    41    20    22 ar  
    42    20    84 1   
    43    21    23 ar  
    44    22    23 ar  
    45    22    85 1   
    46    23    47 1   
    47    24    27 ar  
    48    24    48 1   
    49    24    49 ar  
    50    25    49 ar  
    51    25    50 ar  
    52    25    86 1   
    53    26    27 ar  
    54    26    50 ar  
    55    26   111 1   
    56    27    51 1   
    57    28    48 1   
    58    28    51 2   
    59    28    87 1   
    60    29    30 1   
    61    29    61 1   
    62    29    88 1   
    63    29    89 1   
    64    30    31 1   
    65    30    62 1   
    66    30    90 1   
    67    31    32 1   
    68    31    63 1   
    69    31    91 1   
    70    32    64 1   
    71    32    92 1   
    72    32   110 1   
    73    33    36 1   
    74    33    52 1   
    75    33    53 2   
    76    34    53 1   
    77    34    54 1   
    78    34   117 2   
    79    35    36 1   
    80    35    54 1   
    81    35    65 2   
    82    36    43 1   
    83    36    55 1   
    84    37    38 ar  
    85    37    39 ar  
    86    37    52 1   
    87    38    40 ar  
    88    38    55 1   
    89    39    46 ar  
    90    39    93 1   
    91    40    41 ar  
    92    40    94 1   
    93    41    42 1   
    94    41    46 ar  
    95    42    95 1   
    96    42    96 1   
    97    42    97 1   
    98    43    44 1   
    99    43    98 1   
   100    44    45 1   
   101    44    99 1   
   102    44   100 1   
   103    45    55 1   
   104    45    66 1   
   105    45   108 1   
   106    46   109 1   
   107    52   110 1   
   108    54   103 1   
   109    56    67 1   
   110    57    67 1   
   111    58    67 1   
   112    58    68 1   
   113    59    68 1   
   114    60    68 1   
   115    61    68 1   
   116    62   104 1   
   117    63   105 1   
   118    64   106 1   
   119    66   107 1   
   120   101   111 1   
   121   102   111 1   
   122   109   114 1   
   123   109   115 1   
   124   109   116 1   
   125   110   112 1   
   126   110   113 1   
@<TRIPOS>SUBSTRUCTURE
     1 12F         1 TEMP              0 ****  ****    0 ROOT
