@<TRIPOS>MOLECULE
12F
  118   126     1     0     0
SMALL
abcg2


@<TRIPOS>ATOM
      1 C01        -10.1620     1.6550    -1.7730 ca         1 12F      -0.086300
      2 O01         -8.2110     0.3390    -1.6390 os         1 12F      -0.350100
      3 C02        -10.2600     2.9970    -1.4270 ca         1 12F      -0.079500
      4 C03        -11.3520     3.4630    -0.7050 ca         1 12F      -0.116000
      5 C04        -12.3520     2.5830    -0.3150 ca         1 12F      -0.104000
      6 C05        -12.2570     1.2370    -0.6510 ca         1 12F      -0.116000
      7 C06        -11.1690     0.7780    -1.3760 ca         1 12F      -0.079500
      8 C07         -8.9840     1.1410    -2.5390 c3         1 12F       0.210900
      9 C1           9.0520     0.2210     0.5230 c5         1 12F       0.329300
     10 C2          10.3970     0.1860    -0.2030 c5         1 12F       0.062300
     11 O2          11.4410     0.2200     0.7240 oh         1 12F      -0.706000
     12 C3          10.2800     1.4220    -1.0980 c5         1 12F       0.097300
     13 O3          10.4860     2.5990    -0.3600 oh         1 12F      -0.714000
     14 C4           8.8120     1.3410    -1.5040 c5         1 12F       0.140300
     15 O4           8.1380     0.7350    -0.4010 os         1 12F      -0.385000
     16 C5           8.6330     0.5270    -2.7750 c3         1 12F       0.225600
     17 O5           7.2760     0.3800    -3.1240 os         1 12F      -0.580400
     18 CAL         -4.8150    -0.7730    -2.3840 ca         1 12F      -0.085000
     19 CAM         -5.8450     0.0180    -1.8690 ca         1 12F      -0.082300
     20 CAN         -5.0690    -1.8770    -3.1780 ca         1 12F      -0.080000
     21 CAO         -7.1630    -0.3350    -2.1680 ca         1 12F       0.077100
     22 CAP         -6.3780    -2.2350    -3.4680 ca         1 12F      -0.125000
     23 CAQ         -7.3940    -1.4650    -2.9490 ca         1 12F       0.131000
     24 CAR          8.4410    -1.4130     2.3090 ca         1 12F       0.138500
     25 CAS          8.3270    -1.3300     4.5020 ca         1 12F       0.143900
     26 CAT          7.8560    -3.3590     3.5280 ca         1 12F       0.434900
     27 CAU          8.0910    -2.7530     2.2840 ca         1 12F      -0.045600
     28 CAV          8.3450    -2.1890     0.2660 cc         1 12F       0.452700
     29 CAW          2.3180    -1.5710    -0.3090 c3         1 12F       0.203600
     30 CAX          1.2180    -0.5260    -0.2380 c3         1 12F       0.125300
     31 CAY         -0.0060    -1.0550     0.5350 c3         1 12F       0.093300
     32 CAZ         -1.1470    -0.0190     0.5790 c3         1 12F       0.132300
     33 CBB         -4.5490     0.0280     1.0100 c2         1 12F       0.731200
     34 CBC         -6.0650    -1.6600     0.6010 c          1 12F       0.738400
     35 CBD         -6.9370     0.5850     0.9970 c          1 12F       0.585000
     36 CBE         -5.5500     1.0580     0.5710 c5         1 12F       0.065900
     37 CBF         -3.2430     1.7210     2.0770 ca         1 12F       0.250000
     38 CBG         -4.2270     2.6790     1.8410 ca         1 12F       0.271000
     39 CBH         -2.1780     2.0360     2.9150 ca         1 12F      -0.108000
     40 CBI         -4.1030     3.9300     2.4390 ca         1 12F      -0.119000
     41 CBJ         -3.0230     4.2580     3.2490 ca         1 12F      -0.075300
     42 CBK         -2.9270     5.6230     3.8620 c3         1 12F      -0.040800
     43 CBL         -5.4510     1.1850    -1.0040 c5         1 12F      -0.016400
     44 CBM         -6.1200     2.5370    -1.2100 c5         1 12F      -0.124400
     45 CBN         -5.6220     3.3770    -0.0360 c5         1 12F       0.462500
     46 CBP         -2.0450     3.2900     3.4970 ca         1 12F      -0.072300
     47 FBR         -8.6670    -1.8190    -3.1880 f          1 12F      -0.184000
     48 NBS          8.6180    -1.0650     1.0020 na         1 12F      -0.277300
     49 NBT          8.5760    -0.6530     3.3940 nb         1 12F      -0.214000
     50 NBU          7.9830    -2.6100     4.6290 nb         1 12F      -0.331000
     51 NBW          8.0420    -3.2190     0.9970 nd         1 12F      -0.549100
     52 NBX         -3.3720     0.4390     1.5010 nh         1 12F      -0.712400
     53 NBY         -4.7880    -1.2290     0.8230 ne         1 12F      -0.749100
     54 NBZ         -7.1000    -0.7600     0.8550 ns         1 12F      -0.501500
     55 NCA         -5.2900     2.4060     0.9890 nh         1 12F      -0.795400
     56 OCF          5.3850    -1.0270    -3.9720 o          1 12F      -0.849000
     57 OCG          7.4560    -2.1700    -2.8740 o          1 12F      -0.849000
     58 OCH          5.8240    -0.7480    -1.4660 os         1 12F      -0.701800
     59 OCI          4.8870    -3.1310    -1.1170 o          1 12F      -0.848000
     60 OCJ          5.2100    -1.4830     0.8770 o          1 12F      -0.848000
     61 OCK          3.4570    -1.0120    -0.9230 os         1 12F      -0.566400
     62 OCL          0.8580    -0.0550    -1.5250 oh         1 12F      -0.726000
     63 OCM          0.3690    -1.4440     1.8380 oh         1 12F      -0.651000
     64 OCN         -1.7500     0.1730    -0.6760 oh         1 12F      -0.752000
     65 OCP         -7.8030     1.3290     1.3830 o          1 12F      -0.488000
     66 OCQ         -6.5820     4.2780     0.4460 oh         1 12F      -0.643000
     67 PCR          6.4680    -1.0430    -2.9440 p5         1 12F       1.477800
     68 PCS          4.9010    -1.7420    -0.5620 p5         1 12F       1.457800
     69 H02         -9.4800     3.6890    -1.7230 ha         1 12F       0.115000
     70 H03        -11.4190     4.5120    -0.4450 ha         1 12F       0.108000
     71 H04        -13.2040     2.9440     0.2460 ha         1 12F       0.104000
     72 H05        -13.0350     0.5470    -0.3500 ha         1 12F       0.108000
     73 H06        -11.1030    -0.2710    -1.6410 ha         1 12F       0.115000
     74 H07         -9.3110     0.5520    -3.3990 h1         1 12F       0.037700
     75 H07A        -8.3790     1.9680    -2.9220 h1         1 12F       0.037700
     76 H2          10.4480    -0.7080    -0.8390 h1         1 12F       0.070700
     77 HO2         12.2430    -0.1010     0.3000 ho         1 12F       0.493000
     78 H3          10.9510     1.3660    -1.9660 h1         1 12F       0.037700
     79 HO3         11.2800     2.4780     0.1740 ho         1 12F       0.500000
     80 H4           8.3950     2.3410    -1.6540 h1         1 12F       0.086700
     81 H5           9.1360     1.0650    -3.5850 h1         1 12F       0.014200
     82 H5'A         9.1270    -0.4440    -2.6820 h1         1 12F       0.014200
     83 HAL         -3.7920    -0.5180    -2.1380 ha         1 12F       0.150000
     84 HAN         -4.2510    -2.4690    -3.5640 ha         1 12F       0.132000
     85 HAP         -6.6070    -3.1040    -4.0700 ha         1 12F       0.130000
     86 HAS          8.4130    -0.7760     5.4310 h5         1 12F       0.013100
     87 HAV          8.3550    -2.1850    -0.8160 h5         1 12F       0.126800
     88 HAW          2.5370    -1.9180     0.7050 h1         1 12F       0.024700
     89 HAWA         1.9550    -2.4410    -0.8750 h1         1 12F       0.024700
     90 HAX          1.5980     0.3510     0.3020 h1         1 12F       0.075700
     91 HAY         -0.3820    -1.9610     0.0450 h1         1 12F       0.081700
     92 HAZ         -0.7200     0.9290     0.9460 h1         1 12F       0.033700
     93 HBH         -1.4160     1.3000     3.1260 ha         1 12F       0.128000
     94 HBI         -4.8760     4.6670     2.2640 ha         1 12F       0.126000
     95 HBK         -2.9540     5.5740     4.9530 hc         1 12F       0.038033
     96 HBKA        -1.9920     6.1190     3.5940 hc         1 12F       0.038033
     97 HBKB        -3.7470     6.2630     3.5390 hc         1 12F       0.038033
     98 HBL         -4.3790     1.3310    -1.1730 hc         1 12F       0.084700
     99 HBM         -5.8470     2.9760    -2.1700 hc         1 12F       0.070700
    100 HBMA        -7.2020     2.4730    -1.1510 hc         1 12F       0.070700
    101 HNBV         7.3060    -5.1970     2.8370 hn         1 12F       0.490000
    102 HNBA         7.2660    -5.0180     4.5480 hn         1 12F       0.490000
    103 HNBZ        -8.0360    -1.1380     0.9310 hn         1 12F       0.333500
    104 HOCL         0.7900    -0.8070    -2.1250 ho         1 12F       0.514000
    105 HOCM         0.7900    -0.6980     2.2810 ho         1 12F       0.445000
    106 HOCN        -1.0380     0.3700    -1.3010 ho         1 12F       0.542000
    107 HOCQ        -6.5450     5.0720    -0.0980 ho         1 12F       0.441000
    108 HCBN        -4.7090     3.9200    -0.3130 h2         1 12F       0.034700
    109 CBO         -0.8680     3.5920     4.3770 c3         1 12F      -0.044800
    110 CBA         -2.2460    -0.4860     1.5330 c3         1 12F       0.209800
    111 NBV          7.5320    -4.6520     3.6510 nv         1 12F      -1.079900
    112 HBA         -2.6170    -1.4600     1.2250 h1         1 12F       0.089200
    113 HBAA        -1.8780    -0.5950     2.5510 h1         1 12F       0.089200
    114 HBO         -0.2930     4.4410     3.9990 hc         1 12F       0.043700
    115 HBOA        -1.1780     3.8510     5.3920 hc         1 12F       0.043700
    116 HBOB        -0.1920     2.7410     4.4450 hc         1 12F       0.043700
    117 OCO         -6.3260    -2.8060     0.3030 o          1 12F      -0.520000
    118 H1           9.1230     0.8610     1.4110 h2         1 12F       0.095700
@<TRIPOS>BOND
     1     1     3 ar  
     2     1     7 ar  
     3     1     8 1   
     4     2     8 1   
     5     2    21 1   
     6     3     4 ar  
     7     3    69 1   
     8     4     5 ar  
     9     4    70 1   
    10     5     6 ar  
    11     5    71 1   
    12     6     7 ar  
    13     6    72 1   
    14     7    73 1   
    15     8    74 1   
    16     8    75 1   
    17     9    10 1   
    18     9    15 1   
    19     9    48 1   
    20     9   118 1   
    21    10    11 1   
    22    10    12 1   
    23    10    76 1   
    24    11    77 1   
    25    12    13 1   
    26    12    14 1   
    27    12    78 1   
    28    13    79 1   
    29    14    15 1   
    30    14    16 1   
    31    14    80 1   
    32    16    17 1   
    33    16    81 1   
    34    16    82 1   
    35    17    67 1   
    36    18    19 ar  
    37    18    20 ar  
    38    18    83 1   
    39    19    21 ar  
    40    19    43 1   
    41    20    22 ar  
    42    20    84 1   
    43    21    23 ar  
    44    22    23 ar  
    45    22    85 1   
    46    23    47 1   
    47    24    27 ar  
    48    24    48 1   
    49    24    49 ar  
    50    25    49 ar  
    51    25    50 ar  
    52    25    86 1   
    53    26    27 ar  
    54    26    50 ar  
    55    26   111 1   
    56    27    51 1   
    57    28    48 1   
    58    28    51 2   
    59    28    87 1   
    60    29    30 1   
    61    29    61 1   
    62    29    88 1   
    63    29    89 1   
    64    30    31 1   
    65    30    62 1   
    66    30    90 1   
    67    31    32 1   
    68    31    63 1   
    69    31    91 1   
    70    32    64 1   
    71    32    92 1   
    72    32   110 1   
    73    33    36 1   
    74    33    52 1   
    75    33    53 2   
    76    34    53 1   
    77    34    54 1   
    78    34   117 2   
    79    35    36 1   
    80    35    54 1   
    81    35    65 2   
    82    36    43 1   
    83    36    55 1   
    84    37    38 ar  
    85    37    39 ar  
    86    37    52 1   
    87    38    40 ar  
    88    38    55 1   
    89    39    46 ar  
    90    39    93 1   
    91    40    41 ar  
    92    40    94 1   
    93    41    42 1   
    94    41    46 ar  
    95    42    95 1   
    96    42    96 1   
    97    42    97 1   
    98    43    44 1   
    99    43    98 1   
   100    44    45 1   
   101    44    99 1   
   102    44   100 1   
   103    45    55 1   
   104    45    66 1   
   105    45   108 1   
   106    46   109 1   
   107    52   110 1   
   108    54   103 1   
   109    56    67 1   
   110    57    67 1   
   111    58    67 1   
   112    58    68 1   
   113    59    68 1   
   114    60    68 1   
   115    61    68 1   
   116    62   104 1   
   117    63   105 1   
   118    64   106 1   
   119    66   107 1   
   120   101   111 1   
   121   102   111 1   
   122   109   114 1   
   123   109   115 1   
   124   109   116 1   
   125   110   112 1   
   126   110   113 1   
@<TRIPOS>SUBSTRUCTURE
     1 12F         1 TEMP              0 ****  ****    0 ROOT
