@<TRIPOS>MOLECULE
12G
   49    52     1     0     0
SMALL
bcc


@<TRIPOS>ATOM
      1 CLA         -0.4760     1.3670     2.0180 cl         1 12G      -0.117400
      2 CBB         -0.3040     1.5300     0.3010 ca         1 12G       0.060400
      3 CAM         -0.2310     2.8150    -0.2220 ca         1 12G      -0.118000
      4 CAI         -0.0780     2.9910    -1.5860 ca         1 12G      -0.103000
      5 CAK         -0.0060     1.8860    -2.4250 ca         1 12G      -0.126000
      6 CAO         -0.0970     0.6140    -1.8890 ca         1 12G      -0.089000
      7 CBE         -0.2500     0.4100    -0.5190 ca         1 12G      -0.086300
      8 CBF         -0.3370    -1.0050     0.0060 c5         1 12G       0.216200
      9 NBG          0.8700    -1.7560    -0.3080 n          1 12G      -0.350000
     10 CBC          2.1450    -1.3210     0.1210 ca         1 12G      -0.007400
     11 CAR          3.1720    -1.1180    -0.7890 ca         1 12G      -0.126000
     12 CAP          4.4020    -0.6560    -0.3440 ca         1 12G      -0.120500
     13 CAZ          4.6320    -0.3760     1.0010 ca         1 12G       0.017700
     14 CAT          5.9470     0.1410     1.4840 c3         1 12G      -0.197100
     15 CAU          6.1940     1.6450     1.1870 c          1 12G       0.937600
     16 OAD          5.5900     2.1470     0.2240 o          1 12G      -0.827800
     17 OAA          7.0000     2.2120     1.9450 o          1 12G      -0.827800
     18 CAQ          3.5800    -0.5760     1.8940 ca         1 12G      -0.120500
     19 CAS          2.3620    -1.0570     1.4700 ca         1 12G      -0.126000
     20 CAX          0.6240    -2.8490    -1.0540 c          1 12G       0.660700
     21 OAC          1.4030    -3.6870    -1.4670 o          1 12G      -0.621500
     22 CAW         -0.8480    -2.8560    -1.2990 ce         1 12G       0.101900
     23 OAE         -1.4110    -3.8010    -2.0120 oh         1 12G      -0.439100
     24 CAY         -1.4140    -1.8090    -0.6720 cf         1 12G      -0.294400
     25 CAV         -2.8190    -1.4310    -0.6630 c          1 12G       0.621900
     26 OAB         -3.6290    -1.8920    -1.4410 o          1 12G      -0.502100
     27 CBD         -3.2470    -0.4700     0.4040 ca         1 12G      -0.143600
     28 CBA         -3.7010     0.8120     0.1180 ca         1 12G       0.064400
     29 CL2         -3.6490     1.3950    -1.5110 cl         1 12G      -0.098400
     30 CAL         -4.1450     1.6560     1.1210 ca         1 12G      -0.126000
     31 CAH         -4.1620     1.2030     2.4330 ca         1 12G      -0.109000
     32 CAJ         -3.7140    -0.0720     2.7400 ca         1 12G      -0.130000
     33 CAN         -3.2440    -0.8960     1.7290 ca         1 12G      -0.094000
     34 H1          -0.2870     3.6700     0.4380 ha         1 12G       0.145000
     35 H2          -0.0180     3.9920    -1.9910 ha         1 12G       0.132000
     36 H3           0.1120     2.0140    -3.4920 ha         1 12G       0.132000
     37 H4          -0.0580    -0.2420    -2.5510 ha         1 12G       0.134000
     38 H5          -0.4900    -1.0030     1.0870 h1         1 12G       0.091700
     39 H6           3.0170    -1.3010    -1.8450 ha         1 12G       0.119500
     40 H7           5.1930    -0.5110    -1.0690 ha         1 12G       0.135000
     41 H8           6.0540    -0.0440     2.5550 hc         1 12G       0.035200
     42 H9           6.7660    -0.4010     0.9990 hc         1 12G       0.035200
     43 H11          3.7300    -0.3710     2.9470 ha         1 12G       0.135000
     44 H12          1.5680    -1.2230     2.1880 ha         1 12G       0.119500
     45 H13         -0.7470    -4.4550    -2.2810 ho         1 12G       0.453000
     46 H14         -4.4730     2.6590     0.8820 ha         1 12G       0.145000
     47 H15         -4.5180     1.8610     3.2150 ha         1 12G       0.132000
     48 H16         -3.7180    -0.4220     3.7630 ha         1 12G       0.134000
     49 H17         -2.8770    -1.8870     1.9680 ha         1 12G       0.139000
@<TRIPOS>BOND
     1     1     2 1   
     2     2     3 ar  
     3     2     7 ar  
     4     3     4 ar  
     5     3    34 1   
     6     4     5 ar  
     7     4    35 1   
     8     5     6 ar  
     9     5    36 1   
    10     6     7 ar  
    11     6    37 1   
    12     7     8 1   
    13     8     9 1   
    14     8    24 1   
    15     8    38 1   
    16     9    10 1   
    17     9    20 1   
    18    10    11 ar  
    19    10    19 ar  
    20    11    12 ar  
    21    11    39 1   
    22    12    13 ar  
    23    12    40 1   
    24    13    14 1   
    25    13    18 ar  
    26    14    15 1   
    27    14    41 1   
    28    14    42 1   
    29    15    16 1   
    30    15    17 1   
    31    18    19 ar  
    32    18    43 1   
    33    19    44 1   
    34    20    21 2   
    35    20    22 1   
    36    22    23 1   
    37    22    24 2   
    38    23    45 1   
    39    24    25 1   
    40    25    26 2   
    41    25    27 1   
    42    27    28 ar  
    43    27    33 ar  
    44    28    29 1   
    45    28    30 ar  
    46    30    31 ar  
    47    30    46 1   
    48    31    32 ar  
    49    31    47 1   
    50    32    33 ar  
    51    32    48 1   
    52    33    49 1   
@<TRIPOS>SUBSTRUCTURE
     1 12G         1 TEMP              0 ****  ****    0 ROOT
