@<TRIPOS>MOLECULE
12G
   49    52     1     0     0
SMALL
No Charge or Current Charge


@<TRIPOS>ATOM
      1 ClA         -0.4570     1.3600     2.1450 cl         1 12G      -0.209000
      2 CBB         -0.4830     1.5310     0.3890 ca         1 12G       0.152000
      3 CAM         -0.5860     2.8310    -0.1350 ca         1 12G      -0.100000
      4 CAI         -0.5940     3.0390    -1.5220 ca         1 12G      -0.085000
      5 CAK         -0.4930     1.9420    -2.3880 ca         1 12G      -0.108000
      6 CAO         -0.3940     0.6400    -1.8700 ca         1 12G      -0.071000
      7 CBE         -0.3970     0.4090    -0.4720 ca         1 12G      -0.086300
      8 CBF         -0.3000    -1.0230     0.0880 c5         1 12G       0.216200
      9 NBG          0.9880    -1.5970    -0.3850 n          1 12G      -0.190400
     10 CBC          2.2820    -1.1160     0.0410 ca         1 12G      -0.100000
     11 CAR          3.4230    -1.2620    -0.7770 ca         1 12G      -0.108000
     12 CAP          4.7010    -0.9260    -0.2980 ca         1 12G      -0.102500
     13 CAZ          4.8750    -0.4900     1.0280 ca         1 12G       0.017700
     14 CAT          6.2630    -0.1340     1.5510 c3         1 12G      -0.197100
     15 CAU          6.5310     1.3590     1.3150 c          1 12G       0.727000
     16 OAD          7.0010     1.6950     0.2380 o          1 12G      -0.722500
     17 OAA          6.1580     2.1510     2.1670 o          1 12G      -0.722500
     18 CAQ          3.7530    -0.4140     1.8710 ca         1 12G      -0.102500
     19 CAS          2.4750    -0.7490     1.3900 ca         1 12G      -0.108000
     20 CAX          0.7270    -2.6490    -1.2780 c          1 12G       0.518200
     21 OAC          1.5430    -3.3760    -1.8360 o          1 12G      -0.546000
     22 CAW         -0.7560    -2.7320    -1.4140 ce         1 12G       0.101900
     23 OAE         -1.3260    -3.6630    -2.2340 oh         1 12G      -0.478100
     24 CAY         -1.4120    -1.8190    -0.6570 cf         1 12G      -0.294400
     25 CAV         -2.8770    -1.5780    -0.5120 c          1 12G       0.621900
     26 OAB         -3.7020    -2.2120    -1.1570 o          1 12G      -0.502100
     27 CBD         -3.3280    -0.5480     0.4740 ca         1 12G      -0.143600
     28 CBA         -3.8450     0.6870     0.0350 ca         1 12G       0.156000
     29 Cl2         -3.9630     1.0640    -1.6820 cl         1 12G      -0.190000
     30 CAL         -4.2600     1.6490     0.9710 ca         1 12G      -0.108000
     31 CAH         -4.1710     1.3820     2.3480 ca         1 12G      -0.091000
     32 CAJ         -3.6620     0.1490     2.7890 ca         1 12G      -0.112000
     33 CAN         -3.2370    -0.8130     1.8560 ca         1 12G      -0.076000
     34 H1          -0.6560     3.6800     0.5400 ha         1 12G       0.127000
     35 H2          -0.6740     4.0470    -1.9230 ha         1 12G       0.114000
     36 H3          -0.4940     2.0990    -3.4650 ha         1 12G       0.114000
     37 H4          -0.3170    -0.1900    -2.5670 ha         1 12G       0.116000
     38 H5          -0.4100    -1.0920     1.1770 h1         1 12G       0.091700
     39 H6           3.3270    -1.5990    -1.8050 ha         1 12G       0.101500
     40 H7           5.5600    -1.0120    -0.9590 ha         1 12G       0.117000
     41 H8           6.2690    -0.3520     2.6250 hc         1 12G       0.035200
     42 H9           6.9850    -0.7390     0.9900 hc         1 12G       0.035200
     43 H11          3.8710    -0.1080     2.9080 ha         1 12G       0.117000
     44 H12          1.6370    -0.7180     2.0800 ha         1 12G       0.101500
     45 H13         -0.5850    -4.1740    -2.6310 ho         1 12G       0.492000
     46 H14         -4.6520     2.6030     0.6280 ha         1 12G       0.127000
     47 H15         -4.4940     2.1280     3.0700 ha         1 12G       0.114000
     48 H16         -3.5910    -0.0590     3.8550 ha         1 12G       0.116000
     49 H17         -2.8430    -1.7650     2.2070 ha         1 12G       0.121000
@<TRIPOS>BOND
     1     1     2 1   
     2     2     3 ar  
     3     2     7 ar  
     4     3     4 ar  
     5     3    34 1   
     6     4     5 ar  
     7     4    35 1   
     8     5     6 ar  
     9     5    36 1   
    10     6     7 ar  
    11     6    37 1   
    12     7     8 1   
    13     8     9 1   
    14     8    24 1   
    15     8    38 1   
    16     9    10 1   
    17     9    20 1   
    18    10    11 ar  
    19    10    19 ar  
    20    11    12 ar  
    21    11    39 1   
    22    12    13 ar  
    23    12    40 1   
    24    13    14 1   
    25    13    18 ar  
    26    14    15 1   
    27    14    41 1   
    28    14    42 1   
    29    15    16 1   
    30    15    17 1   
    31    18    19 ar  
    32    18    43 1   
    33    19    44 1   
    34    20    21 2   
    35    20    22 1   
    36    22    23 1   
    37    22    24 2   
    38    23    45 1   
    39    24    25 1   
    40    25    26 2   
    41    25    27 1   
    42    27    28 ar  
    43    27    33 ar  
    44    28    29 1   
    45    28    30 ar  
    46    30    31 ar  
    47    30    46 1   
    48    31    32 ar  
    49    31    47 1   
    50    32    33 ar  
    51    32    48 1   
    52    33    49 1   
@<TRIPOS>SUBSTRUCTURE
     1 12G         1 TEMP              0 ****  ****    0 ROOT
