@<TRIPOS>MOLECULE
12H
   38    37     1     0     0
SMALL
bcc


@<TRIPOS>ATOM
      1 C1           0.4180    -0.0110     7.4000 c3         1 12H       0.139400
      2 C2          -0.4240    -0.0250     6.1400 c3         1 12H      -0.081400
      3 C3           0.4350     0.0020     4.8810 c3         1 12H      -0.075400
      4 C4          -0.3840    -0.0120     3.5960 c3         1 12H      -0.074400
      5 C5           0.4790     0.0110     2.3410 c3         1 12H      -0.074400
      6 C6          -0.3320    -0.0060     1.0510 c3         1 12H      -0.075400
      7 C7           0.5340     0.0090    -0.2030 c3         1 12H      -0.075400
      8 C8          -0.2730    -0.0040    -1.4950 c3         1 12H      -0.075400
      9 C9           0.5940    -0.0040    -2.7480 c3         1 12H      -0.078400
     10 C10         -0.2140    -0.0120    -4.0400 c3         1 12H      -0.054400
     11 C11          0.6610    -0.0330    -5.2830 c3         1 12H      -0.203400
     12 C12         -0.0790    -0.0380    -6.6320 c          1 12H       0.926600
     13 O13         -0.4300    -0.0460     8.5290 oh         1 12H      -0.601800
     14 O14         -1.3120     0.1490    -6.6220 o          1 12H      -0.849300
     15 O15          0.6300    -0.2170    -7.6460 o          1 12H      -0.849300
     16 H11          1.0490     0.8880     7.4020 h1         1 12H       0.014200
     17 H12          1.1000    -0.8720     7.3860 h1         1 12H       0.014200
     18 H21         -1.0550    -0.9200     6.1330 hc         1 12H       0.051700
     19 H22         -1.0980     0.8370     6.1420 hc         1 12H       0.051700
     20 H31          1.0730     0.8930     4.8930 hc         1 12H       0.035700
     21 H32          1.1150    -0.8570     4.8840 hc         1 12H       0.035700
     22 H41         -1.0240    -0.9010     3.5820 hc         1 12H       0.038200
     23 H42         -1.0610     0.8490     3.5880 hc         1 12H       0.038200
     24 H51          1.1190     0.9000     2.3560 hc         1 12H       0.034700
     25 H52          1.1570    -0.8500     2.3530 hc         1 12H       0.034700
     26 H61         -0.9730    -0.8950     1.0370 hc         1 12H       0.035700
     27 H62         -1.0090     0.8550     1.0350 hc         1 12H       0.035700
     28 H71          1.1810     0.8940    -0.1880 hc         1 12H       0.031700
     29 H72          1.2070    -0.8560    -0.1880 hc         1 12H       0.031700
     30 H81         -0.9240    -0.8850    -1.5060 hc         1 12H       0.034200
     31 H82         -0.9410     0.8650    -1.5150 hc         1 12H       0.034200
     32 H91          1.2510     0.8740    -2.7340 hc         1 12H       0.023700
     33 H92          1.2590    -0.8750    -2.7260 hc         1 12H       0.023700
     34 H101        -0.8790    -0.8820    -4.0420 hc         1 12H       0.038200
     35 H102        -0.8680     0.8640    -4.0620 hc         1 12H       0.038200
     36 H111         1.3320     0.8350    -5.2710 hc         1 12H       0.014200
     37 H112         1.3270    -0.9030    -5.2510 hc         1 12H       0.014200
     38 H13          0.1190    -0.0270     9.3170 ho         1 12H       0.399000
@<TRIPOS>BOND
     1     1     2 1   
     2     1    13 1   
     3     1    16 1   
     4     1    17 1   
     5     2     3 1   
     6     2    18 1   
     7     2    19 1   
     8     3     4 1   
     9     3    20 1   
    10     3    21 1   
    11     4     5 1   
    12     4    22 1   
    13     4    23 1   
    14     5     6 1   
    15     5    24 1   
    16     5    25 1   
    17     6     7 1   
    18     6    26 1   
    19     6    27 1   
    20     7     8 1   
    21     7    28 1   
    22     7    29 1   
    23     8     9 1   
    24     8    30 1   
    25     8    31 1   
    26     9    10 1   
    27     9    32 1   
    28     9    33 1   
    29    10    11 1   
    30    10    34 1   
    31    10    35 1   
    32    11    12 1   
    33    11    36 1   
    34    11    37 1   
    35    12    14 1   
    36    12    15 1   
    37    13    38 1   
@<TRIPOS>SUBSTRUCTURE
     1 12H         1 TEMP              0 ****  ****    0 ROOT
