@<TRIPOS>MOLECULE
12H
   38    37     1     0     0
SMALL
No Charge or Current Charge


@<TRIPOS>ATOM
      1 C1           0.3810     0.0040     7.4950 c3         1 12H       0.162600
      2 C2          -0.4340    -0.0860     6.1890 c3         1 12H      -0.081400
      3 C3           0.4440     0.0160     4.9220 c3         1 12H      -0.075400
      4 C4          -0.3700    -0.0730     3.6130 c3         1 12H      -0.074400
      5 C5           0.5090     0.0290     2.3470 c3         1 12H      -0.074400
      6 C6          -0.3040    -0.0600     1.0370 c3         1 12H      -0.075400
      7 C7           0.5750     0.0430    -0.2290 c3         1 12H      -0.075400
      8 C8          -0.2380    -0.0470    -1.5390 c3         1 12H      -0.075400
      9 C9           0.6410     0.0560    -2.8040 c3         1 12H      -0.078400
     10 C10         -0.1720    -0.0330    -4.1150 c3         1 12H      -0.054400
     11 C11          0.7070     0.0700    -5.3860 c3         1 12H      -0.203400
     12 C12         -0.1700    -0.0270    -6.6480 c          1 12H       0.716000
     13 O13         -0.4960    -0.0980     8.6210 oh         1 12H      -0.664000
     14 O14         -0.6390     1.0040    -7.1050 o          1 12H      -0.744000
     15 O15         -0.3960    -1.1350    -7.1100 o          1 12H      -0.744000
     16 H11          0.9220     0.9590     7.5200 h1         1 12H       0.014200
     17 H12          1.1220    -0.8060     7.5160 h1         1 12H       0.014200
     18 H21         -0.9820    -1.0360     6.1730 hc         1 12H       0.051700
     19 H22         -1.1810     0.7170     6.1770 hc         1 12H       0.051700
     20 H31          0.9930     0.9660     4.9410 hc         1 12H       0.035700
     21 H32          1.1920    -0.7860     4.9370 hc         1 12H       0.035700
     22 H41         -0.9180    -1.0240     3.5940 hc         1 12H       0.038200
     23 H42         -1.1180     0.7290     3.5970 hc         1 12H       0.038200
     24 H51          1.0580     0.9790     2.3660 hc         1 12H       0.034700
     25 H52          1.2580    -0.7730     2.3620 hc         1 12H       0.034700
     26 H61         -0.8520    -1.0110     1.0180 hc         1 12H       0.035700
     27 H62         -1.0520     0.7420     1.0220 hc         1 12H       0.035700
     28 H71          1.1240     0.9930    -0.2100 hc         1 12H       0.031700
     29 H72          1.3230    -0.7600    -0.2140 hc         1 12H       0.031700
     30 H81         -0.7860    -0.9970    -1.5580 hc         1 12H       0.034200
     31 H82         -0.9860     0.7550    -1.5530 hc         1 12H       0.034200
     32 H91          1.1890     1.0060    -2.7850 hc         1 12H       0.023700
     33 H92          1.3890    -0.7460    -2.7890 hc         1 12H       0.023700
     34 H101        -0.7210    -0.9830    -4.1330 hc         1 12H       0.038200
     35 H102        -0.9210     0.7680    -4.1290 hc         1 12H       0.038200
     36 H111         1.1970     1.0500    -5.3330 hc         1 12H       0.014200
     37 H112         1.4050    -0.7760    -5.3380 hc         1 12H       0.014200
     38 H13          0.0660    -0.0360     9.4250 ho         1 12H       0.438000
@<TRIPOS>BOND
     1     1     2 1   
     2     1    13 1   
     3     1    16 1   
     4     1    17 1   
     5     2     3 1   
     6     2    18 1   
     7     2    19 1   
     8     3     4 1   
     9     3    20 1   
    10     3    21 1   
    11     4     5 1   
    12     4    22 1   
    13     4    23 1   
    14     5     6 1   
    15     5    24 1   
    16     5    25 1   
    17     6     7 1   
    18     6    26 1   
    19     6    27 1   
    20     7     8 1   
    21     7    28 1   
    22     7    29 1   
    23     8     9 1   
    24     8    30 1   
    25     8    31 1   
    26     9    10 1   
    27     9    32 1   
    28     9    33 1   
    29    10    11 1   
    30    10    34 1   
    31    10    35 1   
    32    11    12 1   
    33    11    36 1   
    34    11    37 1   
    35    12    14 1   
    36    12    15 1   
    37    13    38 1   
@<TRIPOS>SUBSTRUCTURE
     1 12H         1 TEMP              0 ****  ****    0 ROOT
