@<TRIPOS>MOLECULE
12I
   33    35     1     0     0
SMALL
bcc


@<TRIPOS>ATOM
      1 N1           2.9120    -1.7170     0.2190 nb         1 12I      -0.723000
      2 C2           1.8570    -2.4380     0.4670 ca         1 12I       0.686900
      3 C3           2.6910    -0.3890     0.0310 ca         1 12I       0.433600
      4 N3          -0.9880    -0.4060     0.0520 nh         1 12I      -0.774300
      5 C4           1.3900     0.1610     0.0530 ca         1 12I      -0.288600
      6 N4          -3.7260     0.2790    -0.2780 n3         1 12I      -0.715600
      7 C5           1.2370     1.5620     0.0470 ca         1 12I      -0.086000
      8 C6           2.3300     2.3790    -0.0830 ca         1 12I      -0.147000
      9 C7           3.6170     1.8250    -0.2040 ca         1 12I      -0.102000
     10 C8           0.3130    -0.7860     0.1710 ca         1 12I       0.721200
     11 C9          -2.0310    -1.3140     0.5010 c6         1 12I       0.209300
     12 C10         -3.2750    -0.5140     0.8470 c6         1 12I       0.154800
     13 C11         -2.6780     1.1750    -0.7220 c6         1 12I       0.154800
     14 C17          3.7980     0.4690    -0.1360 ca         1 12I      -0.181300
     15 C12         -1.4370     0.3900    -1.0880 c6         1 12I       0.209300
     16 N9           0.5750    -2.0490     0.4430 nb         1 12I      -0.802000
     17 C13         -4.9450     0.9950     0.0250 c3         1 12I       0.152100
     18 H2           2.0190    -3.4880     0.6890 h5         1 12I       0.045100
     19 H17          4.7880     0.0330    -0.1810 ha         1 12I       0.152000
     20 H91C        -2.2600    -2.0590    -0.2710 h1         1 12I       0.058450
     21 H92C        -1.6930    -1.8500     1.3850 h1         1 12I       0.058450
     22 H121        -0.6570     1.0600    -1.4360 h1         1 12I       0.058450
     23 H122        -1.6710    -0.2860    -1.9200 h1         1 12I       0.058450
     24 H5           0.2590     2.0040     0.1810 ha         1 12I       0.138000
     25 H101        -3.0600     0.1120     1.7300 h1         1 12I       0.040950
     26 H102        -4.0660    -1.2110     1.1320 h1         1 12I       0.040950
     27 H111        -3.0210     1.7180    -1.6060 h1         1 12I       0.040950
     28 H112        -2.4260     1.9270     0.0460 h1         1 12I       0.040950
     29 H131        -4.8270     1.7240     0.8410 h1         1 12I       0.032700
     30 H132        -5.2890     1.5350    -0.8580 h1         1 12I       0.032700
     31 H133        -5.7290     0.2930     0.3140 h1         1 12I       0.032700
     32 H6           2.2040     3.4530    -0.0790 ha         1 12I       0.134000
     33 H7           4.4700     2.4800    -0.3230 ha         1 12I       0.135000
@<TRIPOS>BOND
     1     1     2 ar  
     2     1     3 ar  
     3     2    16 ar  
     4     2    18 1   
     5     3     5 ar  
     6     3    14 ar  
     7     4    10 1   
     8     4    11 1   
     9     4    15 1   
    10     5     7 ar  
    11     5    10 ar  
    12     6    12 1   
    13     6    13 1   
    14     6    17 1   
    15     7     8 ar  
    16     7    24 1   
    17     8     9 ar  
    18     8    32 1   
    19     9    14 ar  
    20     9    33 1   
    21    10    16 ar  
    22    11    12 1   
    23    11    20 1   
    24    11    21 1   
    25    12    25 1   
    26    12    26 1   
    27    13    15 1   
    28    13    27 1   
    29    13    28 1   
    30    14    19 1   
    31    15    22 1   
    32    15    23 1   
    33    17    29 1   
    34    17    30 1   
    35    17    31 1   
@<TRIPOS>SUBSTRUCTURE
     1 12I         1 TEMP              0 ****  ****    0 ROOT
