@<TRIPOS>MOLECULE
12I
   33    35     1     0     0
SMALL
No Charge or Current Charge


@<TRIPOS>ATOM
      1 N1           2.9920    -1.7430    -0.0220 nb         1 12I      -0.197000
      2 C2           1.8960    -2.5260    -0.0240 ca         1 12I       0.160900
      3 C3           2.8020    -0.4090     0.0220 ca         1 12I       0.040000
      4 N3          -0.9450    -0.3680     0.0390 nh         1 12I      -0.774300
      5 C4           1.4900     0.1290     0.0600 ca         1 12I      -0.158000
      6 N4          -3.8550     0.2340    -0.2300 n3         1 12I      -0.715600
      7 C5           1.3050     1.5280     0.1340 ca         1 12I      -0.068000
      8 C6           2.4160     2.3870     0.1490 ca         1 12I      -0.129000
      9 C7           3.7150     1.8580     0.0970 ca         1 12I      -0.084000
     10 C8           0.4050    -0.7840     0.0390 ca         1 12I       0.392900
     11 C9          -1.9770    -1.1500     0.7950 c6         1 12I       0.209300
     12 C10         -3.2850    -0.3280     1.0330 c6         1 12I       0.154800
     13 C11         -2.8180     1.0440    -0.9400 c6         1 12I       0.154800
     14 C17          3.9040     0.4670     0.0370 ca         1 12I      -0.098000
     15 C12         -1.5040     0.2400    -1.2090 c6         1 12I       0.209300
     16 N9           0.6150    -2.1150     0.0050 nb         1 12I      -0.276000
     17 C13         -5.1110     0.9810    -0.0080 c3         1 12I       0.152100
     18 H2           2.0630    -3.6010    -0.0550 h5         1 12I       0.045100
     19 H17          4.9140     0.0650     0.0050 ha         1 12I       0.134000
     20 H91C        -2.2350    -2.0650     0.2410 h1         1 12I       0.058450
     21 H92C        -1.5800    -1.4600     1.7730 h1         1 12I       0.058450
     22 H121        -0.7720     0.9140    -1.6760 h1         1 12I       0.058450
     23 H122        -1.7230    -0.5520    -1.9400 h1         1 12I       0.058450
     24 H5           0.3070     1.9570     0.1890 ha         1 12I       0.120000
     25 H101        -3.0580     0.4870     1.7370 h1         1 12I       0.040950
     26 H102        -4.0210    -0.9790     1.5270 h1         1 12I       0.040950
     27 H111        -3.2090     1.4040    -1.9030 h1         1 12I       0.040950
     28 H112        -2.5640     1.9340    -0.3460 h1         1 12I       0.040950
     29 H131        -4.9410     1.8530     0.6380 h1         1 12I       0.032700
     30 H132        -5.5250     1.3360    -0.9620 h1         1 12I       0.032700
     31 H133        -5.8640     0.3410     0.4700 h1         1 12I       0.032700
     32 H6           2.2690     3.4640     0.2050 ha         1 12I       0.116000
     33 H7           4.5750     2.5240     0.1100 ha         1 12I       0.117000
@<TRIPOS>BOND
     1     1     2 ar  
     2     1     3 ar  
     3     2    16 ar  
     4     2    18 1   
     5     3     5 ar  
     6     3    14 ar  
     7     4    10 1   
     8     4    11 1   
     9     4    15 1   
    10     5     7 ar  
    11     5    10 ar  
    12     6    12 1   
    13     6    13 1   
    14     6    17 1   
    15     7     8 ar  
    16     7    24 1   
    17     8     9 ar  
    18     8    32 1   
    19     9    14 ar  
    20     9    33 1   
    21    10    16 ar  
    22    11    12 1   
    23    11    20 1   
    24    11    21 1   
    25    12    25 1   
    26    12    26 1   
    27    13    15 1   
    28    13    27 1   
    29    13    28 1   
    30    14    19 1   
    31    15    22 1   
    32    15    23 1   
    33    17    29 1   
    34    17    30 1   
    35    17    31 1   
@<TRIPOS>SUBSTRUCTURE
     1 12I         1 TEMP              0 ****  ****    0 ROOT
