@<TRIPOS>MOLECULE
12J
   36    37     1     0     0
SMALL
bcc


@<TRIPOS>ATOM
      1 I           -2.4570     0.6740     2.6040 i          1 12J      -0.144900
      2 N            0.2940    -1.6550     0.1650 ns         1 12J      -0.467100
      3 C1          -2.9810    -0.7100     1.1050 ca         1 12J       0.098900
      4 O1          -0.4100     0.5090     0.0070 o          1 12J      -0.546100
      5 C2          -2.0470    -1.1980     0.1930 ca         1 12J      -0.127600
      6 O2           4.3210     0.8750    -0.2240 os         1 12J      -0.327900
      7 C3          -2.4570    -2.1530    -0.7350 ca         1 12J      -0.112000
      8 C4          -3.7670    -2.6060    -0.7630 ca         1 12J      -0.119000
      9 C5          -4.6820    -2.1140     0.1530 ca         1 12J      -0.113000
     10 C6          -4.2900    -1.1710     1.0940 ca         1 12J      -0.106000
     11 C7          -0.6420    -0.6780     0.1190 c          1 12J       0.683700
     12 C8           1.6850    -1.5580     0.0440 ca         1 12J       0.105600
     13 C9           2.3730    -0.3530    -0.0310 ca         1 12J      -0.193000
     14 C10          3.7660    -0.3480    -0.1410 ca         1 12J       0.179100
     15 C11          4.4730    -1.5470    -0.1740 ca         1 12J      -0.246000
     16 C12          3.7680    -2.7420    -0.0940 ca         1 12J      -0.064000
     17 C13          2.3920    -2.7650     0.0150 ca         1 12J      -0.226000
     18 C14          5.7390     1.0440    -0.1390 c3         1 12J       0.157100
     19 C15          6.0300     2.4390    -0.6570 c3         1 12J      -0.108100
     20 C16          6.2230     0.8550     1.2890 c3         1 12J      -0.108100
     21 HN          -0.0510    -2.5930     0.3080 hn         1 12J       0.321500
     22 H3          -1.7470    -2.5350    -1.4580 ha         1 12J       0.139000
     23 H4          -4.0670    -3.3400    -1.4990 ha         1 12J       0.140000
     24 H5          -5.7070    -2.4620     0.1460 ha         1 12J       0.139000
     25 H6          -5.0110    -0.8040     1.8120 ha         1 12J       0.149000
     26 H9           1.8520     0.5910    -0.0010 ha         1 12J       0.179000
     27 H11          5.5500    -1.5780    -0.2630 ha         1 12J       0.136000
     28 H12          4.3140    -3.6760    -0.1190 ha         1 12J       0.128000
     29 H13          1.8650    -3.7090     0.0800 ha         1 12J       0.128000
     30 H14          6.2360     0.3230    -0.7970 h1         1 12J       0.040700
     31 H15          5.5410     3.1990    -0.0450 hc         1 12J       0.047200
     32 H15A         7.1040     2.6240    -0.6280 hc         1 12J       0.047200
     33 H15B         5.6990     2.5580    -1.6890 hc         1 12J       0.047200
     34 H16          6.0050    -0.1410     1.6750 hc         1 12J       0.047200
     35 H16A         7.3030     0.9940     1.3350 hc         1 12J       0.047200
     36 H16B         5.7600     1.5880     1.9530 hc         1 12J       0.047200
@<TRIPOS>BOND
     1     1     3 1   
     2     2    11 1   
     3     2    12 1   
     4     2    21 1   
     5     3     5 ar  
     6     3    10 ar  
     7     4    11 2   
     8     5     7 ar  
     9     5    11 1   
    10     6    14 1   
    11     6    18 1   
    12     7     8 ar  
    13     7    22 1   
    14     8     9 ar  
    15     8    23 1   
    16     9    10 ar  
    17     9    24 1   
    18    10    25 1   
    19    12    13 ar  
    20    12    17 ar  
    21    13    14 ar  
    22    13    26 1   
    23    14    15 ar  
    24    15    16 ar  
    25    15    27 1   
    26    16    17 ar  
    27    16    28 1   
    28    17    29 1   
    29    18    19 1   
    30    18    20 1   
    31    18    30 1   
    32    19    31 1   
    33    19    32 1   
    34    19    33 1   
    35    20    34 1   
    36    20    35 1   
    37    20    36 1   
@<TRIPOS>SUBSTRUCTURE
     1 12J         1 TEMP              0 ****  ****    0 ROOT
