@<TRIPOS>MOLECULE
12J
   36    37     1     0     0
SMALL
No Charge or Current Charge


@<TRIPOS>ATOM
      1 I           -2.8810     1.4740     1.8280 i          1 12J      -0.282000
      2 N            0.2630    -1.5990    -0.0050 ns         1 12J      -0.141000
      3 C1          -3.1730    -0.4510     0.8380 ca         1 12J       0.236000
      4 O1          -0.5070     0.5650    -0.0690 o          1 12J      -0.546100
      5 C2          -2.1380    -1.1810     0.1940 ca         1 12J      -0.127600
      6 O2           4.4340     0.9310    -0.1570 os         1 12J      -0.351100
      7 C3          -2.4490    -2.4580    -0.3430 ca         1 12J      -0.094000
      8 C4          -3.7470    -2.9860    -0.2470 ca         1 12J      -0.101000
      9 C5          -4.7590    -2.2540     0.3860 ca         1 12J      -0.095000
     10 C6          -4.4680    -0.9930     0.9290 ca         1 12J      -0.088000
     11 C7          -0.7340    -0.6320     0.0560 c          1 12J       0.616700
     12 C8           1.6760    -1.5160    -0.1400 ca         1 12J       0.013000
     13 C9           2.3990    -0.3050    -0.0840 ca         1 12J      -0.175000
     14 C10          3.7970    -0.2950    -0.2150 ca         1 12J       0.179100
     15 C11          4.4880    -1.5080    -0.4160 ca         1 12J      -0.228000
     16 C12          3.7770    -2.7170    -0.4670 ca         1 12J      -0.046000
     17 C13          2.3810    -2.7180    -0.3260 ca         1 12J      -0.208000
     18 C14          5.8630     1.0820    -0.0640 c3         1 12J       0.180300
     19 C15          6.1710     2.5580    -0.3800 c3         1 12J      -0.108100
     20 C16          6.3100     0.6880     1.3620 c3         1 12J      -0.108100
     21 HN          -0.0790    -2.5470     0.0810 hn         1 12J       0.155000
     22 H3          -1.6950    -3.0470    -0.8620 ha         1 12J       0.121000
     23 H4          -3.9690    -3.9640    -0.6710 ha         1 12J       0.122000
     24 H5          -5.7650    -2.6630     0.4620 ha         1 12J       0.121000
     25 H6          -5.2490    -0.4310     1.4330 ha         1 12J       0.131000
     26 H9           1.9010     0.6460     0.0720 ha         1 12J       0.161000
     27 H11          5.5660    -1.5350    -0.5360 ha         1 12J       0.118000
     28 H12          4.3090    -3.6550    -0.6180 ha         1 12J       0.110000
     29 H13          1.8440    -3.6630    -0.3670 ha         1 12J       0.110000
     30 H14          6.3790     0.4610    -0.8080 h1         1 12J       0.040700
     31 H15          5.6680     3.2240     0.3310 hc         1 12J       0.047200
     32 H15A         7.2500     2.7450    -0.3250 hc         1 12J       0.047200
     33 H15B         5.8340     2.8110    -1.3920 hc         1 12J       0.047200
     34 H16          6.1100    -0.3700     1.5640 hc         1 12J       0.047200
     35 H16A         7.3870     0.8540     1.4830 hc         1 12J       0.047200
     36 H16B         5.7840     1.2880     2.1140 hc         1 12J       0.047200
@<TRIPOS>BOND
     1     1     3 1   
     2     2    11 1   
     3     2    12 1   
     4     2    21 1   
     5     3     5 ar  
     6     3    10 ar  
     7     4    11 2   
     8     5     7 ar  
     9     5    11 1   
    10     6    14 1   
    11     6    18 1   
    12     7     8 ar  
    13     7    22 1   
    14     8     9 ar  
    15     8    23 1   
    16     9    10 ar  
    17     9    24 1   
    18    10    25 1   
    19    12    13 ar  
    20    12    17 ar  
    21    13    14 ar  
    22    13    26 1   
    23    14    15 ar  
    24    15    16 ar  
    25    15    27 1   
    26    16    17 ar  
    27    16    28 1   
    28    17    29 1   
    29    18    19 1   
    30    18    20 1   
    31    18    30 1   
    32    19    31 1   
    33    19    32 1   
    34    19    33 1   
    35    20    34 1   
    36    20    35 1   
    37    20    36 1   
@<TRIPOS>SUBSTRUCTURE
     1 12J         1 TEMP              0 ****  ****    0 ROOT
