@<TRIPOS>MOLECULE
12L
   23    24     1     0     0
SMALL
No Charge or Current Charge


@<TRIPOS>ATOM
      1 N19          0.2940    -1.3790    -0.9020 n7         1 12L      -0.868400
      2 C20         -0.7000    -1.9070     0.0630 c5         1 12L       0.188800
      3 C21          0.7540    -0.0230    -0.4040 c5         1 12L       0.037500
      4 C22         -0.3940     0.4860     0.5010 cx         1 12L      -0.069700
      5 C23         -1.2950    -0.6840     0.7850 cx         1 12L      -0.149700
      6 C24         -1.8290     0.4970    -0.0220 cx         1 12L      -0.114000
      7 C25         -2.8270     1.4250     0.6750 c3         1 12L      -0.050600
      8 C26         -2.1980     0.4150    -1.5160 c3         1 12L      -0.050600
      9 C27          2.1490    -0.0250     0.3630 c          1 12L       0.702000
     10 O28          2.7490    -1.0810     0.5280 o          1 12L      -0.732500
     11 H26         -1.4600    -2.5140    -0.4490 h1         1 12L       0.020200
     12 H27         -0.1940    -2.5660     0.7830 h1         1 12L       0.020200
     13 H28          0.9010     0.6470    -1.2620 h1         1 12L       0.056700
     14 H29         -0.1560     1.1700     1.3140 hc         1 12L       0.097700
     15 H30         -1.6730    -0.8130     1.7960 hc         1 12L       0.064700
     16 H31         -2.7900     2.4350     0.2490 hc         1 12L       0.025033
     17 H32         -3.8530     1.0510     0.5700 hc         1 12L       0.025033
     18 H33         -2.6180     1.5130     1.7480 hc         1 12L       0.025033
     19 H34         -1.5100    -0.1700    -2.1300 hc         1 12L       0.025033
     20 H35         -3.1920    -0.0310    -1.6410 hc         1 12L       0.025033
     21 H36         -2.2320     1.4180    -1.9590 hc         1 12L       0.025033
     22 H2           1.1030    -2.0140    -0.9480 hn         1 12L       0.428000
     23 OXT          2.6100     1.0380     0.7600 o          1 12L      -0.732500
@<TRIPOS>BOND
     1     1     2 1   
     2     1     3 1   
     3     1    22 1   
     4     2     5 1   
     5     2    11 1   
     6     2    12 1   
     7     3     4 1   
     8     3     9 1   
     9     3    13 1   
    10     4     5 1   
    11     4     6 1   
    12     4    14 1   
    13     5     6 1   
    14     5    15 1   
    15     6     7 1   
    16     6     8 1   
    17     7    16 1   
    18     7    17 1   
    19     7    18 1   
    20     8    19 1   
    21     8    20 1   
    22     8    21 1   
    23     9    10 1   
    24     9    23 1   
@<TRIPOS>SUBSTRUCTURE
     1 12L         1 TEMP              0 ****  ****    0 ROOT
