@<TRIPOS>MOLECULE
12L
   23    24     1     0     0
SMALL
bcc


@<TRIPOS>ATOM
      1 N19          0.2810    -1.3170    -0.8920 n7         1 12L      -0.813200
      2 C20         -0.6930    -1.8650     0.0530 c5         1 12L       0.188800
      3 C21          0.7240    -0.0100    -0.4130 c5         1 12L       0.037500
      4 C22         -0.4020     0.4990     0.4620 cx         1 12L      -0.069700
      5 C23         -1.2940    -0.6730     0.7600 cx         1 12L      -0.149700
      6 C24         -1.8190     0.4840    -0.0440 cx         1 12L      -0.114000
      7 C25         -2.7650     1.4000     0.7030 c3         1 12L      -0.050600
      8 C26         -2.1600     0.3660    -1.5100 c3         1 12L      -0.050600
      9 C27          2.0570    -0.0350     0.3740 c          1 12L       0.912600
     10 O28          2.6670    -1.1230     0.4320 o          1 12L      -0.837800
     11 H26         -1.4420    -2.4660    -0.4730 h1         1 12L       0.020200
     12 H27         -0.2330    -2.5170     0.8070 h1         1 12L       0.020200
     13 H28          0.8780     0.6600    -1.2720 h1         1 12L       0.056700
     14 H29         -0.1480     1.2260     1.2240 hc         1 12L       0.097700
     15 H30         -1.7030    -0.8380     1.7510 hc         1 12L       0.064700
     16 H31         -2.7440     2.4100     0.2860 hc         1 12L       0.025033
     17 H32         -3.7940     1.0400     0.6410 hc         1 12L       0.025033
     18 H33         -2.5060     1.4760     1.7610 hc         1 12L       0.025033
     19 H34         -1.4970    -0.3140    -2.0400 hc         1 12L       0.025033
     20 H35         -3.1840     0.0080    -1.6370 hc         1 12L       0.025033
     21 H36         -2.1000     1.3430    -1.9970 hc         1 12L       0.025033
     22 H2           1.0930    -1.9210    -0.9370 hn         1 12L       0.372800
     23 OXT          2.4240     1.0520     0.8620 o          1 12L      -0.837800
@<TRIPOS>BOND
     1     1     2 1   
     2     1     3 1   
     3     1    22 1   
     4     2     5 1   
     5     2    11 1   
     6     2    12 1   
     7     3     4 1   
     8     3     9 1   
     9     3    13 1   
    10     4     5 1   
    11     4     6 1   
    12     4    14 1   
    13     5     6 1   
    14     5    15 1   
    15     6     7 1   
    16     6     8 1   
    17     7    16 1   
    18     7    17 1   
    19     7    18 1   
    20     8    19 1   
    21     8    20 1   
    22     8    21 1   
    23     9    10 1   
    24     9    23 1   
@<TRIPOS>SUBSTRUCTURE
     1 12L         1 TEMP              0 ****  ****    0 ROOT
