@<TRIPOS>MOLECULE
12M
   22    22     1     0     0
SMALL
abcg2


@<TRIPOS>ATOM
      1 CAH         -0.4280     2.8020     0.7710 c3         1 12M      -0.087100
      2 CAD         -0.1460     2.0510    -0.5310 c3         1 12M      -0.035100
      3 CAA          0.4200     0.6770    -0.2860 ca         1 12M      -0.077300
      4 CAC          1.8000     0.5180    -0.2060 ca         1 12M      -0.111000
      5 CAG          2.3730    -0.7180     0.0630 ca         1 12M      -0.108000
      6 CAI          1.5530    -1.8180     0.2600 ca         1 12M      -0.116000
      7 CAE          0.1730    -1.6760     0.1790 ca         1 12M      -0.083000
      8 CAB         -0.4060    -0.4400    -0.0920 ca         1 12M      -0.081300
      9 CAF         -1.9010    -0.2870    -0.1960 c3         1 12M       0.208900
     10 OAJ         -2.5390    -1.5120     0.0540 oh         1 12M      -0.659000
     11 HAH1        -0.8390     3.7920     0.5690 hc         1 12M       0.034700
     12 HAH2        -1.1450     2.2700     1.3990 hc         1 12M       0.034700
     13 HAH3         0.4870     2.9320     1.3490 hc         1 12M       0.034700
     14 HAD1        -1.0590     1.9980    -1.1290 hc         1 12M       0.043200
     15 HAD2         0.5650     2.6300    -1.1250 hc         1 12M       0.043200
     16 HAC          2.4380     1.3810    -0.3600 ha         1 12M       0.109000
     17 HAG          3.4500    -0.8170     0.1180 ha         1 12M       0.111000
     18 HAI          1.9820    -2.7890     0.4730 ha         1 12M       0.112000
     19 HAE         -0.4530    -2.5450     0.3310 ha         1 12M       0.130000
     20 HAF1        -2.2350     0.4850     0.5110 h1         1 12M       0.025200
     21 HAF2        -2.1470     0.0940    -1.1970 h1         1 12M       0.025200
     22 HAJ         -3.4830    -1.3880    -0.0800 ho         1 12M       0.445000
@<TRIPOS>BOND
     1     1     2 1   
     2     1    11 1   
     3     1    12 1   
     4     1    13 1   
     5     2     3 1   
     6     2    14 1   
     7     2    15 1   
     8     3     4 ar  
     9     3     8 ar  
    10     4     5 ar  
    11     4    16 1   
    12     5     6 ar  
    13     5    17 1   
    14     6     7 ar  
    15     6    18 1   
    16     7     8 ar  
    17     7    19 1   
    18     8     9 1   
    19     9    10 1   
    20     9    20 1   
    21     9    21 1   
    22    10    22 1   
@<TRIPOS>SUBSTRUCTURE
     1 12M         1 TEMP              0 ****  ****    0 ROOT
