@<TRIPOS>MOLECULE
12M
   22    22     1     0     0
SMALL
No Charge or Current Charge


@<TRIPOS>ATOM
      1 CAH         -0.6570     2.6910     0.8650 c3         1 12M      -0.087100
      2 CAD         -0.0640     2.1190    -0.4370 c3         1 12M      -0.035100
      3 CAA          0.4800     0.6980    -0.2660 ca         1 12M      -0.077300
      4 CAC          1.8750     0.5340    -0.1320 ca         1 12M      -0.111000
      5 CAG          2.4400    -0.7410     0.0250 ca         1 12M      -0.108000
      6 CAI          1.6140    -1.8720     0.0520 ca         1 12M      -0.116000
      7 CAE          0.2240    -1.7260    -0.0770 ca         1 12M      -0.083000
      8 CAB         -0.3600    -0.4510    -0.2340 ca         1 12M      -0.081300
      9 CAF         -1.8840    -0.3800    -0.3690 c3         1 12M       0.208900
     10 OAJ         -2.5110    -0.6400     0.8930 oh         1 12M      -0.659000
     11 HAH1        -1.0090     3.7170     0.7060 hc         1 12M       0.034700
     12 HAH2        -1.5050     2.0890     1.2110 hc         1 12M       0.034700
     13 HAH3         0.1000     2.7070     1.6580 hc         1 12M       0.034700
     14 HAD1        -0.8160     2.1590    -1.2330 hc         1 12M       0.043200
     15 HAD2         0.7370     2.7900    -0.7690 hc         1 12M       0.043200
     16 HAC          2.5300     1.4030    -0.1490 ha         1 12M       0.109000
     17 HAG          3.5180    -0.8500     0.1270 ha         1 12M       0.111000
     18 HAI          2.0490    -2.8620     0.1750 ha         1 12M       0.112000
     19 HAE         -0.4090    -2.6110    -0.0500 ha         1 12M       0.130000
     20 HAF1        -2.2050     0.5940    -0.7550 h1         1 12M       0.025200
     21 HAF2        -2.2040    -1.1300    -1.1050 h1         1 12M       0.025200
     22 HAJ         -3.4810    -0.5980     0.7390 ho         1 12M       0.445000
@<TRIPOS>BOND
     1     1     2 1   
     2     1    11 1   
     3     1    12 1   
     4     1    13 1   
     5     2     3 1   
     6     2    14 1   
     7     2    15 1   
     8     3     4 ar  
     9     3     8 ar  
    10     4     5 ar  
    11     4    16 1   
    12     5     6 ar  
    13     5    17 1   
    14     6     7 ar  
    15     6    18 1   
    16     7     8 ar  
    17     7    19 1   
    18     8     9 1   
    19     9    10 1   
    20     9    20 1   
    21     9    21 1   
    22    10    22 1   
@<TRIPOS>SUBSTRUCTURE
     1 12M         1 TEMP              0 ****  ****    0 ROOT
