@<TRIPOS>MOLECULE
12N
   26    26     1     0     0
SMALL
bcc


@<TRIPOS>ATOM
      1 N29         -0.1640    -0.5540    -1.2630 n8         1 12N      -0.903800
      2 C30         -0.2760    -0.2540     0.1560 c3         1 12N       0.169500
      3 C31          0.9950     0.4250     0.6590 c3         1 12N      -0.055400
      4 C32          2.2710    -0.3510     0.4040 cy         1 12N      -0.055700
      5 C33          3.5830     0.2250     0.9790 cy         1 12N      -0.085900
      6 C34          2.9300    -0.3160    -0.9900 cy         1 12N      -0.085900
      7 C35          4.3060    -0.2340    -0.3010 cy         1 12N      -0.105400
      8 O36         -1.5110     1.8220    -0.1230 oh         1 12N      -0.650800
      9 C37         -1.5200     0.5730     0.5230 c3         1 12N      -0.040900
     10 C40         -2.8180    -0.1780     0.1560 c          1 12N       0.894600
     11 H37         -0.9840    -1.0600    -1.5780 hn         1 12N       0.340800
     12 H38         -0.3700    -1.2080     0.6850 h1         1 12N       0.064700
     13 H39          1.0920     1.4230     0.2170 hc         1 12N       0.035700
     14 H40          0.8880     0.5820     1.7380 hc         1 12N       0.035700
     15 H41          2.1470    -1.3890     0.7310 hc         1 12N       0.049700
     16 H42          3.5370     1.3160     1.0420 hc         1 12N       0.043450
     17 H43          3.9340    -0.1590     1.9380 hc         1 12N       0.043450
     18 H44          2.7410    -1.1470    -1.6670 hc         1 12N       0.043450
     19 H45          2.6860     0.6140    -1.5090 hc         1 12N       0.043450
     20 H46          5.0540     0.4330    -0.7300 hc         1 12N       0.032200
     21 H47          4.7560    -1.2210    -0.1780 hc         1 12N       0.032200
     22 H48         -2.3320     1.7820    -0.6500 ho         1 12N       0.433000
     23 H49         -1.5200     0.7150     1.6160 h1         1 12N       0.033700
     24 H2          -0.1530     0.3120    -1.7900 hn         1 12N       0.340800
     25 OXT         -3.0060    -1.2920     0.6680 o          1 12N      -0.824800
     26 O38         -3.5690     0.4280    -0.6430 o          1 12N      -0.824800
@<TRIPOS>BOND
     1     1     2 1   
     2     1    11 1   
     3     1    24 1   
     4     2     3 1   
     5     2     9 1   
     6     2    12 1   
     7     3     4 1   
     8     3    13 1   
     9     3    14 1   
    10     4     5 1   
    11     4     6 1   
    12     4    15 1   
    13     5     7 1   
    14     5    16 1   
    15     5    17 1   
    16     6     7 1   
    17     6    18 1   
    18     6    19 1   
    19     7    20 1   
    20     7    21 1   
    21     8     9 1   
    22     8    22 1   
    23     9    10 1   
    24     9    23 1   
    25    10    25 1   
    26    10    26 1   
@<TRIPOS>SUBSTRUCTURE
     1 12N         1 TEMP              0 ****  ****    0 ROOT
