@<TRIPOS>MOLECULE
12N
   26    26     1     0     0
SMALL
No Charge or Current Charge


@<TRIPOS>ATOM
      1 N29         -0.1870    -0.1110    -1.5110 n8         1 12N      -1.014200
      2 C30         -0.2600    -0.1480    -0.0320 c3         1 12N       0.169500
      3 C31          1.0080     0.4890     0.6080 c3         1 12N      -0.055400
      4 C32          2.3100    -0.3190     0.4150 cy         1 12N      -0.055700
      5 C33          3.6410     0.2850     0.9820 cy         1 12N      -0.085900
      6 C34          3.0440    -0.2920    -0.9720 cy         1 12N      -0.085900
      7 C35          4.3580    -0.5150    -0.1540 cy         1 12N      -0.105400
      8 O36         -1.8200     1.7930    -0.2430 oh         1 12N      -0.713000
      9 C37         -1.5720     0.5400     0.4670 c3         1 12N      -0.017700
     10 C40         -2.7910    -0.4430     0.3730 c          1 12N       0.684000
     11 H37         -0.9940    -0.6170    -1.8890 hn         1 12N       0.396000
     12 H38         -0.2860    -1.2010     0.2850 h1         1 12N       0.064700
     13 H39          1.1380     1.5090     0.2260 hc         1 12N       0.035700
     14 H40          0.8340     0.5920     1.6860 hc         1 12N       0.035700
     15 H41          2.1230    -1.3370     0.7790 hc         1 12N       0.049700
     16 H42          3.7240     1.3760     0.8940 hc         1 12N       0.043450
     17 H43          3.8980    -0.0020     2.0070 hc         1 12N       0.043450
     18 H44          2.7760    -1.0910    -1.6720 hc         1 12N       0.043450
     19 H45          2.9930     0.6680    -1.5000 hc         1 12N       0.043450
     20 H46          5.2630    -0.0570    -0.5650 hc         1 12N       0.032200
     21 H47          4.5720    -1.5620     0.0910 hc         1 12N       0.032200
     22 H48         -2.6920     1.6560    -0.6890 ho         1 12N       0.472000
     23 H49         -1.4550     0.7510     1.5390 h1         1 12N       0.033700
     24 H2          -0.3890     0.8600    -1.7750 hn         1 12N       0.396000
     25 OXT         -2.8700    -1.3580     1.1800 o          1 12N      -0.719500
     26 O38         -3.6710    -0.1780    -0.4380 o          1 12N      -0.719500
@<TRIPOS>BOND
     1     1     2 1   
     2     1    11 1   
     3     1    24 1   
     4     2     3 1   
     5     2     9 1   
     6     2    12 1   
     7     3     4 1   
     8     3    13 1   
     9     3    14 1   
    10     4     5 1   
    11     4     6 1   
    12     4    15 1   
    13     5     7 1   
    14     5    16 1   
    15     5    17 1   
    16     6     7 1   
    17     6    18 1   
    18     6    19 1   
    19     7    20 1   
    20     7    21 1   
    21     8     9 1   
    22     8    22 1   
    23     9    10 1   
    24     9    23 1   
    25    10    25 1   
    26    10    26 1   
@<TRIPOS>SUBSTRUCTURE
     1 12N         1 TEMP              0 ****  ****    0 ROOT
