@<TRIPOS>MOLECULE
12O
   58    62     1     0     0
SMALL
No Charge or Current Charge


@<TRIPOS>ATOM
      1 O33         -4.2620    -1.6610    -2.8520 o          1 12O      -0.734500
      2 C31         -4.4850    -0.6400    -2.2210 c          1 12O       0.723000
      3 O32         -4.4200     0.4810    -2.7040 o          1 12O      -0.734500
      4 C26         -4.8440    -0.7730    -0.7200 c6         1 12O      -0.184700
      5 C27         -6.3080    -0.3200    -0.4430 c6         1 12O      -0.056400
      6 C28         -6.6700    -0.4370     1.0580 c6         1 12O      -0.078400
      7 C29         -5.6950     0.3840     1.9370 c6         1 12O      -0.067400
      8 C30         -4.2290    -0.0550     1.7070 c6         1 12O      -0.075400
      9 C25         -3.8450     0.0040     0.2020 c6         1 12O      -0.102700
     10 C23         -2.3470    -0.3630    -0.0200 c          1 12O       0.648100
     11 O24         -2.0270    -1.5390    -0.1500 o          1 12O      -0.614100
     12 N14         -1.3440     0.6410     0.0290 n          1 12O      -0.407800
     13 C15         -1.6700     2.1000     0.1430 c6         1 12O       0.115000
     14 C16         -0.4580     3.0550     0.2620 c6         1 12O      -0.048100
     15 C17          0.6120     2.7000    -0.7560 ca         1 12O      -0.054300
     16 C22          1.3350     3.6890    -1.4480 ca         1 12O      -0.104000
     17 C21          2.3100     3.3140    -2.3880 ca         1 12O      -0.114000
     18 C20          2.5600     1.9540    -2.6360 ca         1 12O      -0.120000
     19 C19          1.8390     0.9670    -1.9420 ca         1 12O      -0.097000
     20 C18          0.8640     1.3400    -0.9960 ca         1 12O      -0.070300
     21 C13          0.0950     0.2820    -0.1920 c6         1 12O       0.142000
     22 C12          0.8140    -0.0240     1.1550 c3         1 12O       0.092000
     23 N8           2.2570    -0.3170     1.0310 n          1 12O      -0.381400
     24 C7           3.2550     0.6400     1.2300 c          1 12O       0.580600
     25 O11          3.1060     1.8180     1.5190 o          1 12O      -0.475500
     26 C2           4.5370    -0.0970     1.0340 ca         1 12O      -0.140600
     27 C9           2.7590    -1.5890     0.7620 c          1 12O       0.580600
     28 O10          2.1150    -2.6090     0.5650 o          1 12O      -0.475500
     29 C3           4.2410    -1.4260     0.7570 ca         1 12O      -0.140600
     30 C4           5.2520    -2.3700     0.5270 ca         1 12O      -0.050500
     31 C5           6.5910    -1.9270     0.5850 ca         1 12O      -0.108000
     32 C6           6.8930    -0.5720     0.8680 ca         1 12O      -0.108000
     33 C1           5.8600     0.3630     1.0970 ca         1 12O      -0.050500
     34 H2          -4.7860    -1.8420    -0.4730 hc         1 12O       0.054700
     35 H3          -6.4480     0.7190    -0.7720 hc         1 12O       0.042200
     36 H4          -7.0030    -0.9290    -1.0380 hc         1 12O       0.042200
     37 H5          -7.6990    -0.0870     1.2200 hc         1 12O       0.021700
     38 H6          -6.6480    -1.4920     1.3650 hc         1 12O       0.021700
     39 H7          -5.8020     1.4530     1.7090 hc         1 12O       0.019700
     40 H8          -5.9570     0.2630     2.9970 hc         1 12O       0.019700
     41 H9          -3.5560     0.5830     2.2960 hc         1 12O       0.029700
     42 H10         -4.0900    -1.0790     2.0810 hc         1 12O       0.029700
     43 H11         -3.9560     1.0630    -0.0530 hc         1 12O       0.058700
     44 H12         -2.2390     2.3900    -0.7520 h1         1 12O       0.053700
     45 H13         -2.3230     2.2630     1.0120 h1         1 12O       0.053700
     46 H14         -0.7940     4.0930     0.1290 hc         1 12O       0.048700
     47 H15         -0.0330     2.9940     1.2720 hc         1 12O       0.048700
     48 H16          1.1420     4.7420    -1.2590 ha         1 12O       0.103000
     49 H17          2.8700     4.0770    -2.9240 ha         1 12O       0.099000
     50 H18          3.3150     1.6640    -3.3640 ha         1 12O       0.102000
     51 H19          2.0450    -0.0840    -2.1330 ha         1 12O       0.116000
     52 H20          0.1390    -0.6440    -0.7830 h1         1 12O       0.105700
     53 H21          0.6830     0.8330     1.8260 h1         1 12O       0.073200
     54 H22          0.3150    -0.8800     1.6270 h1         1 12O       0.073200
     55 H23          5.0130    -3.4090     0.3110 ha         1 12O       0.135000
     56 H24          7.3990    -2.6340     0.4110 ha         1 12O       0.113500
     57 H25          7.9300    -0.2470     0.9090 ha         1 12O       0.113500
     58 H26          6.0830     1.4050     1.3150 ha         1 12O       0.135000
@<TRIPOS>BOND
     1     1     2 1   
     2     2     3 1   
     3     2     4 1   
     4     4     5 1   
     5     4     9 1   
     6     4    34 1   
     7     5     6 1   
     8     5    35 1   
     9     5    36 1   
    10     6     7 1   
    11     6    37 1   
    12     6    38 1   
    13     7     8 1   
    14     7    39 1   
    15     7    40 1   
    16     8     9 1   
    17     8    41 1   
    18     8    42 1   
    19     9    10 1   
    20     9    43 1   
    21    10    11 2   
    22    10    12 1   
    23    12    13 1   
    24    12    21 1   
    25    13    14 1   
    26    13    44 1   
    27    13    45 1   
    28    14    15 1   
    29    14    46 1   
    30    14    47 1   
    31    15    16 ar  
    32    15    20 ar  
    33    16    17 ar  
    34    16    48 1   
    35    17    18 ar  
    36    17    49 1   
    37    18    19 ar  
    38    18    50 1   
    39    19    20 ar  
    40    19    51 1   
    41    20    21 1   
    42    21    22 1   
    43    21    52 1   
    44    22    23 1   
    45    22    53 1   
    46    22    54 1   
    47    23    24 1   
    48    23    27 1   
    49    24    25 2   
    50    24    26 1   
    51    26    29 ar  
    52    26    33 ar  
    53    27    28 2   
    54    27    29 1   
    55    29    30 ar  
    56    30    31 ar  
    57    30    55 1   
    58    31    32 ar  
    59    31    56 1   
    60    32    33 ar  
    61    32    57 1   
    62    33    58 1   
@<TRIPOS>SUBSTRUCTURE
     1 12O         1 TEMP              0 ****  ****    0 ROOT
