@<TRIPOS>MOLECULE
12O
   58    62     1     0     0
SMALL
bcc


@<TRIPOS>ATOM
      1 O33         -4.9800    -1.4410    -2.9090 o          1 12O      -0.839800
      2 C31         -4.2860    -0.7380    -2.1450 c          1 12O       0.933600
      3 O32         -3.3390     0.0020    -2.4850 o          1 12O      -0.839800
      4 C26         -4.6420    -0.7940    -0.6470 c6         1 12O      -0.184700
      5 C27         -6.1130    -0.4440    -0.4090 c6         1 12O      -0.056400
      6 C28         -6.4780    -0.5090     1.0690 c6         1 12O      -0.078400
      7 C29         -5.5710     0.3880     1.9040 c6         1 12O      -0.067400
      8 C30         -4.1030     0.0490     1.6770 c6         1 12O      -0.075400
      9 C25         -3.7430     0.1150     0.1850 c6         1 12O      -0.102700
     10 C23         -2.2890    -0.2770     0.0230 c          1 12O       0.715100
     11 O24         -1.9650    -1.4600     0.0120 o          1 12O      -0.614100
     12 N14         -1.3490     0.7040     0.0000 n          1 12O      -0.474800
     13 C15         -1.7060     2.1190    -0.0330 c6         1 12O       0.115000
     14 C16         -0.5070     3.0220     0.2140 c6         1 12O      -0.048100
     15 C17          0.6150     2.6730    -0.7100 ca         1 12O      -0.054300
     16 C22          1.4060     3.6200    -1.3470 ca         1 12O      -0.122000
     17 C21          2.4360     3.2230    -2.1900 ca         1 12O      -0.132000
     18 C20          2.6640     1.8730    -2.4180 ca         1 12O      -0.138000
     19 C19          1.8600     0.9250    -1.8000 ca         1 12O      -0.115000
     20 C18          0.8440     1.3190    -0.9380 ca         1 12O      -0.070300
     21 C13          0.0400     0.3010    -0.1810 c6         1 12O       0.142000
     22 C12          0.6680     0.0120     1.2010 c3         1 12O       0.092000
     23 N8           2.0760    -0.2900     1.1090 n          1 12O      -0.515400
     24 C7           3.0840     0.6490     1.2930 c          1 12O       0.723100
     25 O11          2.9220     1.7910     1.6370 o          1 12O      -0.551000
     26 C2           4.3550    -0.0560     1.0030 ca         1 12O      -0.140600
     27 C9           2.5800    -1.5240     0.7310 c          1 12O       0.723100
     28 O10          1.9190    -2.5060     0.5000 o          1 12O      -0.551000
     29 C3           4.0520    -1.3660     0.6700 ca         1 12O      -0.140600
     30 C4           5.0340    -2.2790     0.3520 ca         1 12O      -0.068500
     31 C5           6.3530    -1.8290     0.3770 ca         1 12O      -0.126000
     32 C6           6.6570    -0.5120     0.7110 ca         1 12O      -0.126000
     33 C1           5.6540     0.4010     1.0330 ca         1 12O      -0.068500
     34 H2          -4.4980    -1.8280    -0.3100 hc         1 12O       0.054700
     35 H3          -6.3160     0.5660    -0.7870 hc         1 12O       0.042200
     36 H4          -6.7430    -1.1240    -0.9850 hc         1 12O       0.042200
     37 H5          -7.5240    -0.2280     1.2130 hc         1 12O       0.021700
     38 H6          -6.3840    -1.5440     1.4190 hc         1 12O       0.021700
     39 H7          -5.7440     1.4340     1.6290 hc         1 12O       0.019700
     40 H8          -5.8150     0.3000     2.9650 hc         1 12O       0.019700
     41 H9          -3.4690     0.7320     2.2500 hc         1 12O       0.029700
     42 H10         -3.8960    -0.9590     2.0530 hc         1 12O       0.029700
     43 H11         -3.9110     1.1390    -0.1560 hc         1 12O       0.058700
     44 H12         -2.1480     2.3690    -1.0020 h1         1 12O       0.053700
     45 H13         -2.4510     2.3280     0.7330 h1         1 12O       0.053700
     46 H14         -0.8240     4.0560     0.0750 hc         1 12O       0.048700
     47 H15         -0.1800     2.9370     1.2550 hc         1 12O       0.048700
     48 H16          1.2180     4.6750    -1.1800 ha         1 12O       0.121000
     49 H17          3.0540     3.9670    -2.6750 ha         1 12O       0.117000
     50 H18          3.4590     1.5590    -3.0820 ha         1 12O       0.120000
     51 H19          2.0240    -0.1300    -1.9950 ha         1 12O       0.134000
     52 H20          0.0460    -0.6330    -0.7450 h1         1 12O       0.105700
     53 H21          0.5560     0.8700     1.8610 h1         1 12O       0.073200
     54 H22          0.1520    -0.8290     1.6620 h1         1 12O       0.073200
     55 H23          4.7960    -3.3020     0.0930 ha         1 12O       0.153000
     56 H24          7.1550    -2.5120     0.1330 ha         1 12O       0.131500
     57 H25          7.6910    -0.1950     0.7220 ha         1 12O       0.131500
     58 H26          5.8920     1.4230     1.2950 ha         1 12O       0.153000
@<TRIPOS>BOND
     1     1     2 1   
     2     2     3 1   
     3     2     4 1   
     4     4     5 1   
     5     4     9 1   
     6     4    34 1   
     7     5     6 1   
     8     5    35 1   
     9     5    36 1   
    10     6     7 1   
    11     6    37 1   
    12     6    38 1   
    13     7     8 1   
    14     7    39 1   
    15     7    40 1   
    16     8     9 1   
    17     8    41 1   
    18     8    42 1   
    19     9    10 1   
    20     9    43 1   
    21    10    11 2   
    22    10    12 1   
    23    12    13 1   
    24    12    21 1   
    25    13    14 1   
    26    13    44 1   
    27    13    45 1   
    28    14    15 1   
    29    14    46 1   
    30    14    47 1   
    31    15    16 ar  
    32    15    20 ar  
    33    16    17 ar  
    34    16    48 1   
    35    17    18 ar  
    36    17    49 1   
    37    18    19 ar  
    38    18    50 1   
    39    19    20 ar  
    40    19    51 1   
    41    20    21 1   
    42    21    22 1   
    43    21    52 1   
    44    22    23 1   
    45    22    53 1   
    46    22    54 1   
    47    23    24 1   
    48    23    27 1   
    49    24    25 2   
    50    24    26 1   
    51    26    29 ar  
    52    26    33 ar  
    53    27    28 2   
    54    27    29 1   
    55    29    30 ar  
    56    30    31 ar  
    57    30    55 1   
    58    31    32 ar  
    59    31    56 1   
    60    32    33 ar  
    61    32    57 1   
    62    33    58 1   
@<TRIPOS>SUBSTRUCTURE
     1 12O         1 TEMP              0 ****  ****    0 ROOT
