@<TRIPOS>MOLECULE
12P
   87    86     1     0     0
SMALL
bcc


@<TRIPOS>ATOM
      1 O37          0.8330     0.2830    15.1970 oh         1 12P      -0.586800
      2 C36          1.6260    -0.4790    14.3160 c3         1 12P       0.140400
      3 C35          0.7400    -1.3590    13.4710 c3         1 12P       0.137400
      4 O34         -0.0690    -0.5680    12.6380 os         1 12P      -0.386600
      5 C33         -0.8770    -1.3370    11.7850 c3         1 12P       0.138900
      6 C32         -1.7370    -0.4340    10.9380 c3         1 12P       0.138900
      7 O31         -0.9270     0.3390    10.0900 os         1 12P      -0.387100
      8 C30         -1.6750     1.1510     9.2210 c3         1 12P       0.139400
      9 C29         -0.7500     1.9910     8.3800 c3         1 12P       0.138900
     10 O28          0.0290     1.1650     7.5520 os         1 12P      -0.386600
     11 C27          0.8540     1.8950     6.6830 c3         1 12P       0.139400
     12 C26          1.7090     0.9540     5.8730 c3         1 12P       0.138900
     13 O25          0.8960     0.1540     5.0520 os         1 12P      -0.386600
     14 C24          1.6420    -0.6920     4.2160 c3         1 12P       0.138400
     15 C23          0.7170    -1.5750     3.4190 c3         1 12P       0.138900
     16 O22         -0.0750    -0.7920     2.5620 os         1 12P      -0.386600
     17 C21         -0.9110    -1.5690     1.7440 c3         1 12P       0.138900
     18 C20         -1.7760    -0.6740     0.8940 c3         1 12P       0.138400
     19 O19         -0.9740     0.0740     0.0170 os         1 12P      -0.386600
     20 C18         -1.7300     0.8730    -0.8570 c3         1 12P       0.138400
     21 C17         -0.8120     1.6990    -1.7210 c3         1 12P       0.138900
     22 O16         -0.0420     0.8580    -2.5410 os         1 12P      -0.386600
     23 C15          0.7850     1.5730    -3.4220 c3         1 12P       0.138900
     24 C14          1.6350     0.6190    -4.2200 c3         1 12P       0.138400
     25 O13          0.8200    -0.1860    -5.0340 os         1 12P      -0.386600
     26 C12          1.5640    -1.0470    -5.8560 c3         1 12P       0.138900
     27 C11          0.6370    -1.9240    -6.6580 c3         1 12P       0.139400
     28 O10         -0.1340    -1.1380    -7.5290 os         1 12P      -0.386600
     29 C9          -0.9650    -1.9090    -8.3590 c3         1 12P       0.138900
     30 C8          -1.8020    -1.0070    -9.2290 c3         1 12P       0.139400
     31 O7          -0.9720    -0.2720   -10.0910 os         1 12P      -0.387100
     32 C6          -1.6980     0.5350   -10.9830 c3         1 12P       0.138900
     33 C5          -0.7490     1.3490   -11.8240 c3         1 12P       0.138900
     34 O4           0.0300     0.5000   -12.6260 os         1 12P      -0.386600
     35 C3           0.9130     1.2050   -13.4620 c3         1 12P       0.137400
     36 C2           1.7630     0.2400   -14.2470 c3         1 12P       0.140400
     37 O1           0.9490    -0.5070   -15.1220 oh         1 12P      -0.586800
     38 H37          1.4180     0.8340    15.7250 ho         1 12P       0.400000
     39 H361         2.3200    -1.1370    14.8540 h1         1 12P       0.024700
     40 H362         2.2350     0.1570    13.6610 h1         1 12P       0.024700
     41 H351         0.1270    -2.0060    14.1160 h1         1 12P       0.025950
     42 H352         1.3870    -2.0220    12.8790 h1         1 12P       0.025950
     43 H331        -1.5430    -1.9990    12.3570 h1         1 12P       0.027200
     44 H332        -0.2650    -1.9840    11.1390 h1         1 12P       0.027200
     45 H321        -2.3570     0.2070    11.5810 h1         1 12P       0.027700
     46 H322        -2.4250    -1.0670    10.3610 h1         1 12P       0.027700
     47 H301        -2.3340     1.8290     9.7810 h1         1 12P       0.027450
     48 H302        -2.3220     0.5420     8.5730 h1         1 12P       0.027450
     49 H291        -0.1130     2.6130     9.0250 h1         1 12P       0.027200
     50 H292        -1.3670     2.6790     7.7850 h1         1 12P       0.027200
     51 H271         1.5250     2.5650     7.2390 h1         1 12P       0.027200
     52 H272         0.2560     2.5300     6.0130 h1         1 12P       0.027200
     53 H261         2.3230     0.3340     6.5420 h1         1 12P       0.026950
     54 H262         2.4030     1.5600     5.2740 h1         1 12P       0.026950
     55 H241         2.3070    -1.3430     4.8010 h1         1 12P       0.027200
     56 H242         2.2830    -0.1090     3.5380 h1         1 12P       0.027200
     57 H231         0.0910    -2.1730     4.0960 h1         1 12P       0.027200
     58 H232         1.3360    -2.2830     2.8500 h1         1 12P       0.027200
     59 H211        -1.5730    -2.2070     2.3450 h1         1 12P       0.027200
     60 H212        -0.3200    -2.2380     1.1010 h1         1 12P       0.027200
     61 H201        -2.3790    -0.0140     1.5360 h1         1 12P       0.027200
     62 H202        -2.4810    -1.3110     0.3430 h1         1 12P       0.027200
     63 H181        -2.3820     1.5620    -0.3020 h1         1 12P       0.027200
     64 H182        -2.3850     0.2550    -1.4890 h1         1 12P       0.027200
     65 H171        -0.1690     2.3300    -1.0910 h1         1 12P       0.027200
     66 H172        -1.4330     2.3780    -2.3210 h1         1 12P       0.027200
     67 H151         1.4590     2.2480    -2.8750 h1         1 12P       0.027200
     68 H152         0.1890     2.2020    -4.1000 h1         1 12P       0.027200
     69 H141         2.2450     0.0020    -3.5440 h1         1 12P       0.027200
     70 H142         2.3340     1.2140    -4.8240 h1         1 12P       0.027200
     71 H121         2.2160    -1.7010    -5.2600 h1         1 12P       0.026950
     72 H122         2.2190    -0.4770    -6.5320 h1         1 12P       0.026950
     73 H111        -0.0050    -2.5090    -5.9830 h1         1 12P       0.027200
     74 H112         1.2530    -2.6450    -7.2140 h1         1 12P       0.027200
     75 H91         -1.6460    -2.5360    -7.7660 h1         1 12P       0.027200
     76 H92         -0.3710    -2.5890    -8.9860 h1         1 12P       0.027200
     77 H81         -2.4110    -0.3380    -8.6030 h1         1 12P       0.027450
     78 H82         -2.5030    -1.6380    -9.7930 h1         1 12P       0.027450
     79 H61         -2.3560     1.2310   -10.4440 h1         1 12P       0.027700
     80 H62         -2.3440    -0.0760   -11.6300 h1         1 12P       0.027700
     81 H51         -0.1130     1.9700   -11.1760 h1         1 12P       0.027200
     82 H52         -1.3450     2.0390   -12.4380 h1         1 12P       0.027200
     83 H31          1.5840     1.8480   -12.8740 h1         1 12P       0.025950
     84 H32          0.3610     1.8650   -14.1480 h1         1 12P       0.025950
     85 H21          2.3130    -0.4070   -13.5500 h1         1 12P       0.024700
     86 H22          2.5120     0.8310   -14.7880 h1         1 12P       0.024700
     87 HO1          1.5130    -1.1110   -15.6120 ho         1 12P       0.400000
@<TRIPOS>BOND
     1     1     2 1   
     2     1    38 1   
     3     2     3 1   
     4     2    39 1   
     5     2    40 1   
     6     3     4 1   
     7     3    41 1   
     8     3    42 1   
     9     4     5 1   
    10     5     6 1   
    11     5    43 1   
    12     5    44 1   
    13     6     7 1   
    14     6    45 1   
    15     6    46 1   
    16     7     8 1   
    17     8     9 1   
    18     8    47 1   
    19     8    48 1   
    20     9    10 1   
    21     9    49 1   
    22     9    50 1   
    23    10    11 1   
    24    11    12 1   
    25    11    51 1   
    26    11    52 1   
    27    12    13 1   
    28    12    53 1   
    29    12    54 1   
    30    13    14 1   
    31    14    15 1   
    32    14    55 1   
    33    14    56 1   
    34    15    16 1   
    35    15    57 1   
    36    15    58 1   
    37    16    17 1   
    38    17    18 1   
    39    17    59 1   
    40    17    60 1   
    41    18    19 1   
    42    18    61 1   
    43    18    62 1   
    44    19    20 1   
    45    20    21 1   
    46    20    63 1   
    47    20    64 1   
    48    21    22 1   
    49    21    65 1   
    50    21    66 1   
    51    22    23 1   
    52    23    24 1   
    53    23    67 1   
    54    23    68 1   
    55    24    25 1   
    56    24    69 1   
    57    24    70 1   
    58    25    26 1   
    59    26    27 1   
    60    26    71 1   
    61    26    72 1   
    62    27    28 1   
    63    27    73 1   
    64    27    74 1   
    65    28    29 1   
    66    29    30 1   
    67    29    75 1   
    68    29    76 1   
    69    30    31 1   
    70    30    77 1   
    71    30    78 1   
    72    31    32 1   
    73    32    33 1   
    74    32    79 1   
    75    32    80 1   
    76    33    34 1   
    77    33    81 1   
    78    33    82 1   
    79    34    35 1   
    80    35    36 1   
    81    35    83 1   
    82    35    84 1   
    83    36    37 1   
    84    36    85 1   
    85    36    86 1   
    86    37    87 1   
@<TRIPOS>SUBSTRUCTURE
     1 12P         1 TEMP              0 ****  ****    0 ROOT
