@<TRIPOS>MOLECULE
12P
   87    86     1     0     0
SMALL
No Charge or Current Charge


@<TRIPOS>ATOM
      1 O37          0.0270     0.5910    16.6490 oh         1 12P      -0.709000
      2 C36          1.1150     0.9130    15.7610 c3         1 12P       0.163600
      3 C35          1.4490    -0.2680    14.8100 c3         1 12P       0.160600
      4 O34          0.3600    -0.4580    13.8840 os         1 12P      -0.433000
      5 C33          0.5520    -1.5390    12.9510 c3         1 12P       0.162100
      6 C32         -0.6750    -1.6230    12.0120 c3         1 12P       0.162100
      7 O31         -0.6480    -0.5060    11.1010 os         1 12P      -0.433500
      8 C30         -1.7520    -0.4650    10.1740 c3         1 12P       0.162600
      9 C29         -1.5920     0.7670     9.2520 c3         1 12P       0.162100
     10 O28         -0.5070     0.5300     8.3340 os         1 12P      -0.433000
     11 C27         -0.2500     1.6160     7.4210 c3         1 12P       0.162600
     12 C26          0.9230     1.2270     6.4900 c3         1 12P       0.162100
     13 O25          0.4730     0.2220     5.5600 os         1 12P      -0.433000
     14 C24          1.4830    -0.2350     4.6390 c3         1 12P       0.161600
     15 C23          0.8670    -1.2970     3.6980 c3         1 12P       0.162100
     16 O22         -0.0320    -0.6460     2.7790 os         1 12P      -0.433000
     17 C21         -0.6840    -1.5360     1.8510 c3         1 12P       0.162100
     18 C20         -1.6060    -0.7110     0.9210 c3         1 12P       0.161600
     19 O19         -0.7920     0.0470     0.0040 os         1 12P      -0.433000
     20 C18         -1.5370     0.8710    -0.9140 c3         1 12P       0.161600
     21 C17         -0.5480     1.6140    -1.8430 c3         1 12P       0.162100
     22 O16          0.0270     0.6700    -2.7690 os         1 12P      -0.433000
     23 C15          0.9790     1.2410    -3.6890 c3         1 12P       0.162100
     24 C14          1.5060     0.1280    -4.6260 c3         1 12P       0.161600
     25 O13          0.4620    -0.2450    -5.5470 os         1 12P      -0.433000
     26 C12          0.8270    -1.2880    -6.4720 c3         1 12P       0.162100
     27 C11         -0.3740    -1.5810    -7.4030 c3         1 12P       0.162600
     28 O10         -0.5370    -0.4810    -8.3220 os         1 12P      -0.433000
     29 C9          -1.6380    -0.6290    -9.2400 c3         1 12P       0.162100
     30 C8          -1.6900     0.6070   -10.1700 c3         1 12P       0.162600
     31 O7          -0.5860     0.5480   -11.0950 os         1 12P      -0.433500
     32 C6          -0.5170     1.6570   -12.0130 c3         1 12P       0.162100
     33 C5           0.7000     1.4630   -12.9490 c3         1 12P       0.162100
     34 O4           0.4170     0.3960   -13.8770 os         1 12P      -0.433000
     35 C3           1.4870     0.1090   -14.7990 c3         1 12P       0.160600
     36 C2           1.0540    -1.0460   -15.7430 c3         1 12P       0.163600
     37 O1          -0.0020    -0.6370   -16.6360 oh         1 12P      -0.709000
     38 H37         -0.1640     1.4040    17.1730 ho         1 12P       0.499000
     39 H361         2.0140     1.1530    16.3440 h1         1 12P       0.024700
     40 H362         0.8700     1.7980    15.1570 h1         1 12P       0.024700
     41 H351         1.6240    -1.1760    15.4020 h1         1 12P       0.025950
     42 H352         2.3740    -0.0340    14.2660 h1         1 12P       0.025950
     43 H331         0.6520    -2.4910    13.4890 h1         1 12P       0.027200
     44 H332         1.4610    -1.3880    12.3530 h1         1 12P       0.027200
     45 H321        -1.5960    -1.6220    12.6100 h1         1 12P       0.027700
     46 H322        -0.6310    -2.5680    11.4550 h1         1 12P       0.027700
     47 H301        -2.7010    -0.3790    10.7190 h1         1 12P       0.027450
     48 H302        -1.7890    -1.3780     9.5640 h1         1 12P       0.027450
     49 H291        -1.4050     1.6610     9.8620 h1         1 12P       0.027200
     50 H292        -2.5290     0.9200     8.7000 h1         1 12P       0.027200
     51 H271         0.0250     2.5220     7.9770 h1         1 12P       0.027200
     52 H272        -1.1380     1.8420     6.8170 h1         1 12P       0.027200
     53 H261         1.7640     0.8590     7.0930 h1         1 12P       0.026950
     54 H262         1.2570     2.1220     5.9490 h1         1 12P       0.026950
     55 H241         2.3190    -0.6900     5.1870 h1         1 12P       0.027200
     56 H242         1.8790     0.5980     4.0430 h1         1 12P       0.027200
     57 H231         0.3410    -2.0550     4.2950 h1         1 12P       0.027200
     58 H232         1.6760    -1.7960     3.1490 h1         1 12P       0.027200
     59 H211        -1.2950    -2.2690     2.3950 h1         1 12P       0.027200
     60 H212         0.0500    -2.0850     1.2470 h1         1 12P       0.027200
     61 H201        -2.2400    -0.0490     1.5260 h1         1 12P       0.027200
     62 H202        -2.2590    -1.3990     0.3690 h1         1 12P       0.027200
     63 H181        -2.1300     1.6130    -0.3620 h1         1 12P       0.027200
     64 H182        -2.2250     0.2660    -1.5190 h1         1 12P       0.027200
     65 H171         0.2300     2.0990    -1.2390 h1         1 12P       0.027200
     66 H172        -1.0930     2.3950    -2.3880 h1         1 12P       0.027200
     67 H151         1.8260     1.6710    -3.1390 h1         1 12P       0.027200
     68 H152         0.5200     2.0390    -4.2880 h1         1 12P       0.027200
     69 H141         1.8300    -0.7330    -4.0270 h1         1 12P       0.027200
     70 H142         2.3770     0.5100    -5.1740 h1         1 12P       0.027200
     71 H121         1.0840    -2.2050    -5.9270 h1         1 12P       0.026950
     72 H122         1.6960    -0.9940    -7.0750 h1         1 12P       0.026950
     73 H111        -1.2790    -1.7280    -6.8000 h1         1 12P       0.027200
     74 H112        -0.1760    -2.5090    -7.9550 h1         1 12P       0.027200
     75 H91         -2.5850    -0.6990    -8.6900 h1         1 12P       0.027200
     76 H92         -1.5270    -1.5390    -9.8450 h1         1 12P       0.027200
     77 H81         -1.6500     1.5220    -9.5650 h1         1 12P       0.027450
     78 H82         -2.6430     0.5990   -10.7150 h1         1 12P       0.027450
     79 H61         -0.3920     2.5980   -11.4610 h1         1 12P       0.027700
     80 H62         -1.4330     1.7310   -12.6120 h1         1 12P       0.027700
     81 H51          1.5930     1.2380   -12.3490 h1         1 12P       0.027200
     82 H52          0.8820     2.4000   -13.4920 h1         1 12P       0.027200
     83 H31          2.3880    -0.2010   -14.2520 h1         1 12P       0.025950
     84 H32          1.7400     0.9950   -15.3960 h1         1 12P       0.025950
     85 H21          0.7340    -1.9020   -15.1350 h1         1 12P       0.024700
     86 H22          1.9300    -1.3650   -16.3240 h1         1 12P       0.024700
     87 HO1         -0.2610    -1.4330   -17.1550 ho         1 12P       0.499000
@<TRIPOS>BOND
     1     1     2 1   
     2     1    38 1   
     3     2     3 1   
     4     2    39 1   
     5     2    40 1   
     6     3     4 1   
     7     3    41 1   
     8     3    42 1   
     9     4     5 1   
    10     5     6 1   
    11     5    43 1   
    12     5    44 1   
    13     6     7 1   
    14     6    45 1   
    15     6    46 1   
    16     7     8 1   
    17     8     9 1   
    18     8    47 1   
    19     8    48 1   
    20     9    10 1   
    21     9    49 1   
    22     9    50 1   
    23    10    11 1   
    24    11    12 1   
    25    11    51 1   
    26    11    52 1   
    27    12    13 1   
    28    12    53 1   
    29    12    54 1   
    30    13    14 1   
    31    14    15 1   
    32    14    55 1   
    33    14    56 1   
    34    15    16 1   
    35    15    57 1   
    36    15    58 1   
    37    16    17 1   
    38    17    18 1   
    39    17    59 1   
    40    17    60 1   
    41    18    19 1   
    42    18    61 1   
    43    18    62 1   
    44    19    20 1   
    45    20    21 1   
    46    20    63 1   
    47    20    64 1   
    48    21    22 1   
    49    21    65 1   
    50    21    66 1   
    51    22    23 1   
    52    23    24 1   
    53    23    67 1   
    54    23    68 1   
    55    24    25 1   
    56    24    69 1   
    57    24    70 1   
    58    25    26 1   
    59    26    27 1   
    60    26    71 1   
    61    26    72 1   
    62    27    28 1   
    63    27    73 1   
    64    27    74 1   
    65    28    29 1   
    66    29    30 1   
    67    29    75 1   
    68    29    76 1   
    69    30    31 1   
    70    30    77 1   
    71    30    78 1   
    72    31    32 1   
    73    32    33 1   
    74    32    79 1   
    75    32    80 1   
    76    33    34 1   
    77    33    81 1   
    78    33    82 1   
    79    34    35 1   
    80    35    36 1   
    81    35    83 1   
    82    35    84 1   
    83    36    37 1   
    84    36    85 1   
    85    36    86 1   
    86    37    87 1   
@<TRIPOS>SUBSTRUCTURE
     1 12P         1 TEMP              0 ****  ****    0 ROOT
