@<TRIPOS>MOLECULE
12Q
   21    22     1     0     0
SMALL
bcc


@<TRIPOS>ATOM
      1 CAH          1.4210     2.1260    -0.0080 c3         1 12Q       0.067300
      2 NAC          1.0260     0.7270    -0.0090 n          1 12Q      -0.347000
      3 CAA         -0.3230     0.4210    -0.0040 ca         1 12Q       0.103600
      4 CAD         -1.3000     1.4260     0.0040 ca         1 12Q      -0.183000
      5 CAI         -2.6400     1.0910     0.0070 ca         1 12Q      -0.079000
      6 CAK         -3.0530    -0.2420     0.0050 ca         1 12Q      -0.164000
      7 CAF         -2.1000    -1.2360    -0.0010 ca         1 12Q      -0.070000
      8 CAB         -0.7360    -0.9250    -0.0050 ca         1 12Q      -0.135800
      9 CAE          0.2700    -1.9420    -0.0100 cc         1 12Q      -0.033200
     10 CAJ          1.5730    -1.6160    -0.0140 cd         1 12Q      -0.242200
     11 CAG          2.0200    -0.2350    -0.0130 c          1 12Q       0.703700
     12 OAL          3.2080     0.0670    -0.0160 o          1 12Q      -0.628500
     13 HAH1         2.5020     2.1910    -0.0180 h1         1 12Q       0.055033
     14 HAH2         1.0330     2.6350    -0.8900 h1         1 12Q       0.055033
     15 HAH3         1.0490     2.6290     0.8840 h1         1 12Q       0.055033
     16 HAD         -1.0280     2.4710     0.0070 ha         1 12Q       0.140000
     17 HAI         -3.3760     1.8830     0.0120 ha         1 12Q       0.133000
     18 HAK         -4.1060    -0.4870     0.0070 ha         1 12Q       0.138000
     19 HAF         -2.3950    -2.2790    -0.0020 ha         1 12Q       0.134000
     20 HAE         -0.0370    -2.9810    -0.0110 ha         1 12Q       0.138000
     21 HAJ          2.3450    -2.3720    -0.0170 ha         1 12Q       0.159000
@<TRIPOS>BOND
     1     1     2 1   
     2     1    13 1   
     3     1    14 1   
     4     1    15 1   
     5     2     3 1   
     6     2    11 1   
     7     3     4 ar  
     8     3     8 ar  
     9     4     5 ar  
    10     4    16 1   
    11     5     6 ar  
    12     5    17 1   
    13     6     7 ar  
    14     6    18 1   
    15     7     8 ar  
    16     7    19 1   
    17     8     9 1   
    18     9    10 2   
    19     9    20 1   
    20    10    11 1   
    21    10    21 1   
    22    11    12 2   
@<TRIPOS>SUBSTRUCTURE
     1 12Q         1 TEMP              0 ****  ****    0 ROOT
