@<TRIPOS>MOLECULE
12Q
   21    22     1     0     0
SMALL
No Charge or Current Charge


@<TRIPOS>ATOM
      1 CAH          1.4850     2.1810    -0.0090 c3         1 12Q       0.067300
      2 NAC          1.0660     0.7540    -0.0080 n          1 12Q      -0.280000
      3 CAA         -0.3410     0.4310    -0.0040 ca         1 12Q       0.103600
      4 CAD         -1.3380     1.4370     0.0040 ca         1 12Q      -0.165000
      5 CAI         -2.7010     1.0970     0.0080 ca         1 12Q      -0.061000
      6 CAK         -3.0860    -0.2500     0.0060 ca         1 12Q      -0.146000
      7 CAF         -2.1100    -1.2570    -0.0010 ca         1 12Q      -0.052000
      8 CAB         -0.7410    -0.9240    -0.0060 ca         1 12Q      -0.135800
      9 CAE          0.2420    -2.0000    -0.0110 cc         1 12Q      -0.083200
     10 CAJ          1.5720    -1.6380    -0.0140 cd         1 12Q      -0.292200
     11 CAG          2.0650    -0.2470    -0.0120 c          1 12Q       0.561200
     12 OAL          3.2640    -0.0010    -0.0140 o          1 12Q      -0.553000
     13 HAH1         2.5760     2.2910    -0.0160 h1         1 12Q       0.055033
     14 HAH2         1.0850     2.6800    -0.9000 h1         1 12Q       0.055033
     15 HAH3         1.0970     2.6780     0.8890 h1         1 12Q       0.055033
     16 HAD         -1.0770     2.4910     0.0060 ha         1 12Q       0.122000
     17 HAI         -3.4570     1.8790     0.0140 ha         1 12Q       0.115000
     18 HAK         -4.1420    -0.5150     0.0090 ha         1 12Q       0.120000
     19 HAF         -2.4190    -2.3000    -0.0030 ha         1 12Q       0.116000
     20 HAE         -0.0460    -3.0500    -0.0130 ha         1 12Q       0.188000
     21 HAJ          2.3580    -2.3840    -0.0180 ha         1 12Q       0.209000
@<TRIPOS>BOND
     1     1     2 1   
     2     1    13 1   
     3     1    14 1   
     4     1    15 1   
     5     2     3 1   
     6     2    11 1   
     7     3     4 ar  
     8     3     8 ar  
     9     4     5 ar  
    10     4    16 1   
    11     5     6 ar  
    12     5    17 1   
    13     6     7 ar  
    14     6    18 1   
    15     7     8 ar  
    16     7    19 1   
    17     8     9 1   
    18     9    10 2   
    19     9    20 1   
    20    10    11 1   
    21    10    21 1   
    22    11    12 2   
@<TRIPOS>SUBSTRUCTURE
     1 12Q         1 TEMP              0 ****  ****    0 ROOT
