@<TRIPOS>MOLECULE
12R
   27    29     1     0     0
SMALL
bcc


@<TRIPOS>ATOM
      1 C4           0.7320    -0.1190     0.4930 ca         1 12R       0.758200
      2 C14         -3.4180    -1.1420     0.6050 ca         1 12R      -0.164000
      3 C5           1.9660     0.5510     0.3640 ca         1 12R      -0.522500
      4 C6           2.8140     0.0560    -0.6280 ca         1 12R       0.484800
      5 C10          2.6830     1.6250     0.9460 cc         1 12R       0.386800
      6 C13         -2.3860    -0.2030     0.6740 ca         1 12R       0.133600
      7 N1           2.5550    -0.9710    -1.4450 nb         1 12R      -0.748000
      8 N3           0.4610    -1.1420    -0.3070 nb         1 12R      -0.825000
      9 C2           1.3730    -1.5010    -1.2160 ca         1 12R       0.724900
     10 N7           3.9200     0.8180    -0.5840 na         1 12R      -0.105800
     11 N9           3.8460     1.7640     0.3630 nd         1 12R      -0.516100
     12 N11         -0.1800     0.2550     1.4110 nu         1 12R      -0.635700
     13 N12         -1.3590    -0.4050     1.5960 nu         1 12R      -0.446400
     14 C15         -4.4870    -0.9430    -0.2530 ca         1 12R      -0.099000
     15 C16         -4.5500     0.1870    -1.0600 ca         1 12R      -0.156000
     16 C17         -3.5210     1.1170    -0.9910 ca         1 12R      -0.099000
     17 C18         -2.4450     0.9310    -0.1340 ca         1 12R      -0.164000
     18 H2           2.3920     2.2820     1.7520 h4         1 12R       0.048800
     19 H3           1.0950    -2.3420    -1.8410 h5         1 12R       0.050100
     20 H4           4.7460     0.7370    -1.1570 hn         1 12R       0.338700
     21 H5           0.0400     0.9780     2.0770 hn         1 12R       0.481800
     22 H6          -1.2350    -1.3660     1.8860 hn         1 12R       0.417800
     23 H7          -5.2760    -1.6830    -0.2930 ha         1 12R       0.129000
     24 H8          -5.3850     0.3390    -1.7310 ha         1 12R       0.133000
     25 H9          -3.5500     2.0030    -1.6110 ha         1 12R       0.129000
     26 H10         -1.6580     1.6720    -0.0960 ha         1 12R       0.133000
     27 H1          -3.3840    -2.0290     1.2270 ha         1 12R       0.133000
@<TRIPOS>BOND
     1     1     3 ar  
     2     1     8 ar  
     3     1    12 1   
     4     2     6 ar  
     5     2    14 ar  
     6     2    27 1   
     7     3     4 ar  
     8     3     5 1   
     9     4     7 ar  
    10     4    10 1   
    11     5    11 2   
    12     5    18 1   
    13     6    13 1   
    14     6    17 ar  
    15     7     9 ar  
    16     8     9 ar  
    17     9    19 1   
    18    10    11 1   
    19    10    20 1   
    20    12    13 1   
    21    12    21 1   
    22    13    22 1   
    23    14    15 ar  
    24    14    23 1   
    25    15    16 ar  
    26    15    24 1   
    27    16    17 ar  
    28    16    25 1   
    29    17    26 1   
@<TRIPOS>SUBSTRUCTURE
     1 12R         1 TEMP              0 ****  ****    0 ROOT
