@<TRIPOS>MOLECULE
12R
   27    29     1     0     0
SMALL
No Charge or Current Charge


@<TRIPOS>ATOM
      1 C4           0.8250    -0.2760     0.5290 ca         1 12R       0.429900
      2 C14         -3.5410    -1.0840     0.6870 ca         1 12R      -0.146000
      3 C5           1.9770     0.4670     0.2870 ca         1 12R      -0.391900
      4 C6           2.8120     0.1350    -0.7370 ca         1 12R       0.156500
      5 C10          2.5370     1.6200     0.9330 cc         1 12R       0.386800
      6 C13         -2.4030    -0.2570     0.7390 ca         1 12R       0.272000
      7 N1           2.5630    -0.9120    -1.5420 nb         1 12R      -0.222000
      8 N3           0.5490    -1.3380    -0.2610 nb         1 12R      -0.299000
      9 C2           1.4310    -1.6010    -1.2580 ca         1 12R       0.198900
     10 N7           3.8300     1.0640    -0.6920 na         1 12R      -0.156100
     11 N9           3.6780     2.0000     0.3420 nd         1 12R      -0.516100
     12 N11         -0.0500     0.0460     1.5800 nu         1 12R      -0.690900
     13 N12         -1.3950    -0.5450     1.6860 nu         1 12R      -0.640000
     14 C15         -4.5680    -0.8310    -0.2390 ca         1 12R      -0.081000
     15 C16         -4.4650     0.2570    -1.1210 ca         1 12R      -0.138000
     16 C17         -3.3370     1.0920    -1.0750 ca         1 12R      -0.081000
     17 C18         -2.3110     0.8370    -0.1470 ca         1 12R      -0.146000
     18 H2           2.1960     2.2000     1.7810 h4         1 12R       0.048800
     19 H3           1.2070    -2.4550    -1.8950 h5         1 12R       0.050100
     20 H4           4.6240     1.0940    -1.3300 hn         1 12R       0.389000
     21 H5           0.1760     0.8760     2.1500 hn         1 12R       0.537000
     22 H6          -1.5090    -1.4000     2.2530 hn         1 12R       0.473000
     23 H7          -5.4420    -1.4780    -0.2720 ha         1 12R       0.111000
     24 H8          -5.2590     0.4540    -1.8380 ha         1 12R       0.115000
     25 H9          -3.2570     1.9370    -1.7560 ha         1 12R       0.111000
     26 H10         -1.4480     1.4960    -0.1220 ha         1 12R       0.115000
     27 H1          -3.6300    -1.9280     1.3650 ha         1 12R       0.115000
@<TRIPOS>BOND
     1     1     3 ar  
     2     1     8 ar  
     3     1    12 1   
     4     2     6 ar  
     5     2    14 ar  
     6     2    27 1   
     7     3     4 ar  
     8     3     5 1   
     9     4     7 ar  
    10     4    10 1   
    11     5    11 2   
    12     5    18 1   
    13     6    13 1   
    14     6    17 ar  
    15     7     9 ar  
    16     8     9 ar  
    17     9    19 1   
    18    10    11 1   
    19    10    20 1   
    20    12    13 1   
    21    12    21 1   
    22    13    22 1   
    23    14    15 ar  
    24    14    23 1   
    25    15    16 ar  
    26    15    24 1   
    27    16    17 ar  
    28    16    25 1   
    29    17    26 1   
@<TRIPOS>SUBSTRUCTURE
     1 12R         1 TEMP              0 ****  ****    0 ROOT
