@<TRIPOS>MOLECULE
12S
   63    65     1     0     0
SMALL
No Charge or Current Charge


@<TRIPOS>ATOM
      1 N26         -7.6720    -0.2970     0.7700 nv         1 12S      -1.053400
      2 C26         -6.6270    -1.1050     0.5800 ca         1 12S       0.597900
      3 C25         -6.7420    -2.4820     0.3820 ca         1 12S      -0.232500
      4 C24         -5.5710    -3.2280     0.1830 ca         1 12S       0.000700
      5 C27         -5.6170    -4.7300    -0.0410 c3         1 12S      -0.053800
      6 C23         -4.3530    -2.5290     0.1930 ca         1 12S      -0.214000
      7 N21         -5.4890    -0.4270     0.5910 nb         1 12S      -0.752500
      8 C22         -4.3530    -1.1360     0.4000 ca         1 12S       0.397800
      9 C28         -3.0500    -0.3530     0.4060 c3         1 12S      -0.125700
     10 C29         -2.5340    -0.0530    -1.0170 c3         1 12S      -0.025600
     11 C5          -1.2130     0.7050    -0.9990 ca         1 12S      -0.077800
     12 C4           0.0060     0.0030    -0.9930 ca         1 12S      -0.105000
     13 C6          -1.2040     2.1120    -0.9750 ca         1 12S      -0.105000
     14 C1           0.0140     2.8180    -0.9480 ca         1 12S      -0.077300
     15 C7           0.0180     4.3400    -0.9130 c3         1 12S      -0.030100
     16 C8           0.0430     4.8880     0.5300 c3         1 12S      -0.077400
     17 C9           0.0470     6.4290     0.5860 c3         1 12S       0.148800
     18 N10          0.0750     6.9220     1.9740 n8         1 12S      -0.996200
     19 C2           1.2270     2.1050    -0.9430 ca         1 12S      -0.105000
     20 C3           1.2300     0.6980    -0.9670 ca         1 12S      -0.077800
     21 C19          2.5460    -0.0670    -0.9510 c3         1 12S      -0.025600
     22 C18          3.0050    -0.3990     0.4850 c3         1 12S      -0.125700
     23 C12          4.3350    -1.1380     0.5140 ca         1 12S       0.397800
     24 C13          5.5480    -0.4360     0.3760 ca         1 12S      -0.214000
     25 N11          4.2810    -2.4800     0.6700 nb         1 12S      -0.752500
     26 C16          5.4360    -3.1270     0.6860 ca         1 12S       0.597900
     27 N16          5.2520    -4.4380     0.8510 nv         1 12S      -1.053400
     28 C15          6.6940    -2.5340     0.5620 ca         1 12S      -0.232500
     29 C14          6.7620    -1.1420     0.4020 ca         1 12S       0.000700
     30 C17          8.0940    -0.4260     0.2530 c3         1 12S      -0.053800
     31 H1          -8.5770    -0.6220     0.4480 hn         1 12S       0.466500
     32 H2          -7.4780     0.6910     0.6670 hn         1 12S       0.466500
     33 H3          -7.7170    -2.9600     0.3830 ha         1 12S       0.118000
     34 H4          -5.6690    -4.9630    -1.1110 hc         1 12S       0.046200
     35 H5          -4.7260    -5.2210     0.3660 hc         1 12S       0.046200
     36 H6          -6.4920    -5.1800     0.4430 hc         1 12S       0.046200
     37 H7          -3.4140    -3.0540     0.0400 ha         1 12S       0.122000
     38 H8          -3.1710     0.5920     0.9500 hc         1 12S       0.055950
     39 H9          -2.2850    -0.9200     0.9510 hc         1 12S       0.055950
     40 H10         -2.4190    -0.9960    -1.5660 hc         1 12S       0.054950
     41 H11         -3.2940     0.5240    -1.5600 hc         1 12S       0.054950
     42 H12          0.0040    -1.0850    -1.0040 ha         1 12S       0.113000
     43 H13         -2.1440     2.6580    -0.9710 ha         1 12S       0.111000
     44 H14          0.8890     4.7260    -1.4590 hc         1 12S       0.044200
     45 H15         -0.8650     4.7320    -1.4320 hc         1 12S       0.044200
     46 H16         -0.8310     4.5060     1.0710 hc         1 12S       0.050700
     47 H17          0.9330     4.5040     1.0430 hc         1 12S       0.050700
     48 H18          0.9310     6.8160     0.0590 h1         1 12S       0.024700
     49 H19         -0.8530     6.8210     0.0910 h1         1 12S       0.024700
     50 H20          0.0150     7.9480     1.9660 hn         1 12S       0.391500
     51 H21         -0.7910     6.6360     2.4480 hn         1 12S       0.391500
     52 H23          2.1710     2.6460    -0.9150 ha         1 12S       0.111000
     53 H24          2.4480    -1.0000    -1.5210 hc         1 12S       0.054950
     54 H25          3.3270     0.5160    -1.4540 hc         1 12S       0.054950
     55 H26          3.0920     0.5320     1.0560 hc         1 12S       0.055950
     56 H27          2.2270    -0.9900     0.9820 hc         1 12S       0.055950
     57 H28          5.5390     0.6430     0.2500 ha         1 12S       0.122000
     58 H29          4.3240    -4.6990     1.1610 hn         1 12S       0.466500
     59 H30          6.0250    -4.9790     1.2220 hn         1 12S       0.466500
     60 H31          7.5950    -3.1390     0.5860 ha         1 12S       0.118000
     61 H32          8.3680    -0.3260    -0.8040 hc         1 12S       0.046200
     62 H33          8.0560     0.5800     0.6870 hc         1 12S       0.046200
     63 H34          8.9000    -0.9730     0.7580 hc         1 12S       0.046200
@<TRIPOS>BOND
     1     1     2 1   
     2     1    31 1   
     3     1    32 1   
     4     2     3 ar  
     5     2     7 ar  
     6     3     4 ar  
     7     3    33 1   
     8     4     5 1   
     9     4     6 ar  
    10     5    34 1   
    11     5    35 1   
    12     5    36 1   
    13     6     8 ar  
    14     6    37 1   
    15     7     8 ar  
    16     8     9 1   
    17     9    10 1   
    18     9    38 1   
    19     9    39 1   
    20    10    11 1   
    21    10    40 1   
    22    10    41 1   
    23    11    12 ar  
    24    11    13 ar  
    25    12    20 ar  
    26    12    42 1   
    27    13    14 ar  
    28    13    43 1   
    29    14    15 1   
    30    14    19 ar  
    31    15    16 1   
    32    15    44 1   
    33    15    45 1   
    34    16    17 1   
    35    16    46 1   
    36    16    47 1   
    37    17    18 1   
    38    17    48 1   
    39    17    49 1   
    40    18    50 1   
    41    18    51 1   
    42    19    20 ar  
    43    19    52 1   
    44    20    21 1   
    45    21    22 1   
    46    21    53 1   
    47    21    54 1   
    48    22    23 1   
    49    22    55 1   
    50    22    56 1   
    51    23    24 ar  
    52    23    25 ar  
    53    24    29 ar  
    54    24    57 1   
    55    25    26 ar  
    56    26    27 1   
    57    26    28 ar  
    58    27    58 1   
    59    27    59 1   
    60    28    29 ar  
    61    28    60 1   
    62    29    30 1   
    63    30    61 1   
    64    30    62 1   
    65    30    63 1   
@<TRIPOS>SUBSTRUCTURE
     1 12S         1 TEMP              0 ****  ****    0 ROOT
