@<TRIPOS>MOLECULE
12S
   63    65     1     0     0
SMALL
bcc


@<TRIPOS>ATOM
      1 N26         -7.5240    -0.2160    -0.1180 nv         1 12S      -0.943000
      2 C26         -6.4400    -0.9970     0.1670 ca         1 12S       0.663200
      3 C25         -6.6040    -2.3450     0.5310 ca         1 12S      -0.315800
      4 C24         -5.4900    -3.0930     0.8520 ca         1 12S       0.000700
      5 C27         -5.6050    -4.5400     1.2190 c3         1 12S      -0.053800
      6 C23         -4.2390    -2.4650     0.8080 ca         1 12S      -0.297300
      7 N21         -5.2480    -0.4120     0.1280 nb         1 12S      -0.752500
      8 C22         -4.1700    -1.1320     0.4460 ca         1 12S       0.463100
      9 C28         -2.8530    -0.4130     0.3700 c3         1 12S      -0.125700
     10 C29         -2.4740    -0.0430    -1.0710 c3         1 12S      -0.025600
     11 C5          -1.1790     0.7170    -1.1200 ca         1 12S      -0.077800
     12 C4           0.0390     0.0440    -1.1560 ca         1 12S      -0.123000
     13 C6          -1.1730     2.1070    -1.0780 ca         1 12S      -0.123000
     14 C1           0.0190     2.8270    -1.0730 ca         1 12S      -0.077300
     15 C7           0.0040     4.3270    -0.9770 c3         1 12S      -0.030100
     16 C8          -0.0790     4.8040     0.4730 c3         1 12S      -0.077400
     17 C9          -0.0950     6.3200     0.5880 c3         1 12S       0.148800
     18 N10         -0.1870     6.7330     1.9810 n8         1 12S      -0.885800
     19 C2           1.2200     2.1260    -1.1110 ca         1 12S      -0.123000
     20 C3           1.2470     0.7350    -1.1530 ca         1 12S      -0.077800
     21 C19          2.5550    -0.0050    -1.1420 c3         1 12S      -0.025600
     22 C18          2.9810    -0.3680     0.2880 c3         1 12S      -0.125700
     23 C12          4.2910    -1.1020     0.3170 ca         1 12S       0.463100
     24 C13          5.4280    -0.5140     0.8400 ca         1 12S      -0.297300
     25 N11          4.2870    -2.3320    -0.2040 nb         1 12S      -0.752500
     26 C16          5.4220    -3.0190    -0.2240 ca         1 12S       0.663200
     27 N16          5.3920    -4.2540    -0.8070 nv         1 12S      -0.943000
     28 C15          6.6240    -2.5000     0.2880 ca         1 12S      -0.315800
     29 C14          6.6300    -1.2310     0.8290 ca         1 12S       0.000700
     30 C17          7.8840    -0.6270     1.3840 c3         1 12S      -0.053800
     31 H1          -8.3720    -0.6850    -0.3910 hn         1 12S       0.411300
     32 H2          -7.3370     0.6240    -0.6410 hn         1 12S       0.411300
     33 H3          -7.5940    -2.7840     0.5600 ha         1 12S       0.136000
     34 H4          -5.2310    -5.1710     0.4110 hc         1 12S       0.046200
     35 H5          -5.0130    -4.7730     2.1050 hc         1 12S       0.046200
     36 H6          -6.6380    -4.8260     1.4130 hc         1 12S       0.046200
     37 H7          -3.3370    -3.0110     1.0530 ha         1 12S       0.140000
     38 H8          -2.9080     0.5010     0.9690 hc         1 12S       0.055950
     39 H9          -2.0650    -1.0300     0.8070 hc         1 12S       0.055950
     40 H10         -2.4010    -0.9560    -1.6670 hc         1 12S       0.054950
     41 H11         -3.2770     0.5560    -1.5050 hc         1 12S       0.054950
     42 H12          0.0470    -1.0410    -1.1930 ha         1 12S       0.131000
     43 H13         -2.1160     2.6450    -1.0550 ha         1 12S       0.129000
     44 H14          0.9060     4.7370    -1.4420 hc         1 12S       0.044200
     45 H15         -0.8470     4.7250    -1.5360 hc         1 12S       0.044200
     46 H16         -0.9830     4.3930     0.9350 hc         1 12S       0.050700
     47 H17          0.7690     4.4070     1.0400 hc         1 12S       0.050700
     48 H18          0.8350     6.7200     0.1740 h1         1 12S       0.024700
     49 H19         -0.9060     6.7160    -0.0420 h1         1 12S       0.024700
     50 H20         -0.1480     7.7430     2.0390 hn         1 12S       0.336300
     51 H21         -1.0980     6.4770     2.3440 hn         1 12S       0.336300
     52 H23          2.1550     2.6790    -1.1150 ha         1 12S       0.129000
     53 H24          2.4800    -0.9200    -1.7330 hc         1 12S       0.054950
     54 H25          3.3330     0.6090    -1.6030 hc         1 12S       0.054950
     55 H26          3.0500     0.5420     0.8880 hc         1 12S       0.055950
     56 H27          2.2060    -0.9910     0.7430 hc         1 12S       0.055950
     57 H28          5.3850     0.4850     1.2560 ha         1 12S       0.140000
     58 H29          4.4820    -4.6730    -0.9080 hn         1 12S       0.411300
     59 H30          6.1130    -4.9060    -0.5450 hn         1 12S       0.411300
     60 H31          7.5300    -3.0940     0.2550 ha         1 12S       0.136000
     61 H32          8.1710     0.2570     0.8110 hc         1 12S       0.046200
     62 H33          7.7390    -0.3040     2.4150 hc         1 12S       0.046200
     63 H34          8.7160    -1.3280     1.3610 hc         1 12S       0.046200
@<TRIPOS>BOND
     1     1     2 1   
     2     1    31 1   
     3     1    32 1   
     4     2     3 ar  
     5     2     7 ar  
     6     3     4 ar  
     7     3    33 1   
     8     4     5 1   
     9     4     6 ar  
    10     5    34 1   
    11     5    35 1   
    12     5    36 1   
    13     6     8 ar  
    14     6    37 1   
    15     7     8 ar  
    16     8     9 1   
    17     9    10 1   
    18     9    38 1   
    19     9    39 1   
    20    10    11 1   
    21    10    40 1   
    22    10    41 1   
    23    11    12 ar  
    24    11    13 ar  
    25    12    20 ar  
    26    12    42 1   
    27    13    14 ar  
    28    13    43 1   
    29    14    15 1   
    30    14    19 ar  
    31    15    16 1   
    32    15    44 1   
    33    15    45 1   
    34    16    17 1   
    35    16    46 1   
    36    16    47 1   
    37    17    18 1   
    38    17    48 1   
    39    17    49 1   
    40    18    50 1   
    41    18    51 1   
    42    19    20 ar  
    43    19    52 1   
    44    20    21 1   
    45    21    22 1   
    46    21    53 1   
    47    21    54 1   
    48    22    23 1   
    49    22    55 1   
    50    22    56 1   
    51    23    24 ar  
    52    23    25 ar  
    53    24    29 ar  
    54    24    57 1   
    55    25    26 ar  
    56    26    27 1   
    57    26    28 ar  
    58    27    58 1   
    59    27    59 1   
    60    28    29 ar  
    61    28    60 1   
    62    29    30 1   
    63    30    61 1   
    64    30    62 1   
    65    30    63 1   
@<TRIPOS>SUBSTRUCTURE
     1 12S         1 TEMP              0 ****  ****    0 ROOT
