@<TRIPOS>MOLECULE
12T
   18    18     1     0     0
SMALL
abcg2


@<TRIPOS>ATOM
      1 NAA          1.3390    -2.2070    -0.1760 nv         1 12T      -1.110000
      2 OAB         -3.6600     1.1020    -0.0710 o          1 12T      -0.752500
      3 OAC          3.4960    -0.6700     0.1710 o          1 12T      -0.757500
      4 OAD         -3.5470    -1.1130     0.1210 o          1 12T      -0.752500
      5 OAE          3.2700     1.5290    -0.0180 o          1 12T      -0.757500
      6 CAF         -0.8690     1.3360    -0.0060 ca         1 12T      -0.165000
      7 CAG          0.5130     1.3760    -0.0050 ca         1 12T      -0.087000
      8 CAH         -0.7590    -1.0510    -0.0490 ca         1 12T      -0.185000
      9 CAI         -3.0430     0.0230     0.0110 c          1 12T       0.714600
     10 CAJ          2.8110     0.3750     0.0410 c          1 12T       0.725600
     11 CAK          0.6430    -1.0220    -0.0700 ca         1 12T       0.278000
     12 CAL         -1.5230     0.1030    -0.0170 ca         1 12T      -0.121600
     13 CAM          1.3020     0.2260    -0.0270 ca         1 12T      -0.224600
     14 HNAA         0.8870    -3.0120     0.2230 hn         1 12T       0.447000
     15 HNAB         2.3180    -2.0940     0.0660 hn         1 12T       0.447000
     16 HAF         -1.4470     2.2510     0.0150 ha         1 12T       0.101000
     17 HAG          1.0190     2.3330     0.0240 ha         1 12T       0.099000
     18 HAH         -1.2650    -2.0100    -0.0650 ha         1 12T       0.102000
@<TRIPOS>BOND
     1     1    11 1   
     2     1    14 1   
     3     1    15 1   
     4     2     9 1   
     5     3    10 1   
     6     4     9 1   
     7     5    10 1   
     8     6     7 ar  
     9     6    12 ar  
    10     6    16 1   
    11     7    13 ar  
    12     7    17 1   
    13     8    11 ar  
    14     8    12 ar  
    15     8    18 1   
    16     9    12 1   
    17    10    13 1   
    18    11    13 ar  
@<TRIPOS>SUBSTRUCTURE
     1 12T         1 TEMP              0 ****  ****    0 ROOT
