@<TRIPOS>MOLECULE
12T
   18    18     1     0     0
SMALL
No Charge or Current Charge


@<TRIPOS>ATOM
      1 NAA          1.3550    -2.1770    -0.1540 nv         1 12T      -1.110000
      2 OAB         -3.7100     1.0650     0.0590 o          1 12T      -0.752500
      3 OAC          3.4820    -0.4450     0.6510 o          1 12T      -0.757500
      4 OAD         -3.6040    -1.0740    -0.0570 o          1 12T      -0.752500
      5 OAE          3.3220     1.2790    -0.6190 o          1 12T      -0.757500
      6 CAF         -0.8720     1.3440     0.0730 ca         1 12T      -0.165000
      7 CAG          0.5310     1.4110     0.0720 ca         1 12T      -0.087000
      8 CAH         -0.7500    -1.0710    -0.0740 ca         1 12T      -0.185000
      9 CAI         -3.0680     0.0250     0.0010 c          1 12T       0.714600
     10 CAJ          2.8190     0.3510    -0.0010 c          1 12T       0.725600
     11 CAK          0.6540    -1.0070    -0.0730 ca         1 12T       0.278000
     12 CAL         -1.5410     0.1010     0.0010 ca         1 12T      -0.121600
     13 CAM          1.3120     0.2370     0.0030 ca         1 12T      -0.224600
     14 HNAA         0.8750    -3.0510     0.0460 hn         1 12T       0.447000
     15 HNAB         2.3410    -2.1230     0.1130 hn         1 12T       0.447000
     16 HAF         -1.4410     2.2690     0.1310 ha         1 12T       0.101000
     17 HAG          1.0140     2.3840     0.1320 ha         1 12T       0.099000
     18 HAH         -1.2340    -2.0420    -0.1350 ha         1 12T       0.102000
@<TRIPOS>BOND
     1     1    11 1   
     2     1    14 1   
     3     1    15 1   
     4     2     9 1   
     5     3    10 1   
     6     4     9 1   
     7     5    10 1   
     8     6     7 ar  
     9     6    12 ar  
    10     6    16 1   
    11     7    13 ar  
    12     7    17 1   
    13     8    11 ar  
    14     8    12 ar  
    15     8    18 1   
    16     9    12 1   
    17    10    13 1   
    18    11    13 ar  
@<TRIPOS>SUBSTRUCTURE
     1 12T         1 TEMP              0 ****  ****    0 ROOT
