@<TRIPOS>MOLECULE
12U
   62    64     1     0     0
SMALL
No Charge or Current Charge


@<TRIPOS>ATOM
      1 C14         -1.9650     0.2600    -0.3260 c          1 12U       0.610100
      2 O32         -1.3980    -0.8300    -0.3690 o          1 12U      -0.600100
      3 C5          -3.5280     0.3800    -0.2560 c3         1 12U       0.096800
      4 N21         -4.2600    -0.8820     0.1100 n7         1 12U      -0.856400
      5 C49         -5.7360    -0.8250     0.0940 c3         1 12U       0.181500
      6 C48         -6.2600    -1.9710     1.0000 c3         1 12U      -0.087900
      7 C47         -7.7600    -1.9150     1.3680 c3         1 12U      -0.066400
      8 C46         -8.7490    -1.8410     0.1810 c3         1 12U      -0.070900
      9 C52         -8.7280    -0.4820    -0.5540 c3         1 12U      -0.070900
     10 C51         -7.6430    -0.3190    -1.6440 c3         1 12U      -0.066400
     11 C50         -6.2550    -0.9440    -1.3650 c3         1 12U      -0.087900
     12 N1          -1.2120     1.4560    -0.3450 n          1 12U      -0.406800
     13 C1           0.2800     1.4750    -0.3130 c5         1 12U       0.034700
     14 C7           0.9400     0.7470     0.9040 c          1 12U       0.601100
     15 O22          0.4250     0.4640     1.9790 o          1 12U      -0.595100
     16 C2           0.5570     3.0040    -0.1790 c5         1 12U      -0.086400
     17 C3          -0.5920     3.6160    -1.0160 c5         1 12U      -0.093400
     18 C4          -1.8120     2.7940    -0.5310 c5         1 12U       0.108000
     19 N23          2.2500     0.4490     0.6000 ns         1 12U      -0.497900
     20 C24          3.1680    -0.2270     1.5100 c3         1 12U       0.152300
     21 C25          4.5530    -0.3510     0.8930 ca         1 12U      -0.102300
     22 C30          4.8980    -1.4880     0.1410 ca         1 12U      -0.104500
     23 C29          6.1760    -1.6010    -0.4340 ca         1 12U      -0.082500
     24 C28          7.1420    -0.5800    -0.2590 ca         1 12U      -0.137900
     25 C9           8.5000    -0.6710    -0.8950 ce         1 12U       0.658800
     26 N10          9.2550     0.3330    -1.0740 n2         1 12U      -0.827100
     27 N11          8.9840    -1.8960    -1.1970 nv         1 12U      -1.076200
     28 C27          6.7740     0.5700     0.4770 ca         1 12U      -0.082500
     29 C26          5.4960     0.6800     1.0520 ca         1 12U      -0.104500
     30 H5          -3.7640     1.1640     0.4750 h1         1 12U       0.043700
     31 H5A         -3.8530     0.7480    -1.2370 h1         1 12U       0.043700
     32 HN21        -3.9480    -1.6450    -0.5040 hn         1 12U       0.428000
     33 H49         -6.0670     0.1320     0.5220 h1         1 12U       0.057700
     34 H48         -6.0460    -2.9370     0.5270 hc         1 12U       0.041950
     35 H48A        -5.6940    -1.9630     1.9400 hc         1 12U       0.041950
     36 H47         -7.9980    -2.8090     1.9580 hc         1 12U       0.035450
     37 H47A        -7.9330    -1.0600     2.0330 hc         1 12U       0.035450
     38 H46         -8.5660    -2.6620    -0.5240 hc         1 12U       0.036700
     39 H46A        -9.7600    -1.9950     0.5790 hc         1 12U       0.036700
     40 H52         -9.7050    -0.3250    -1.0270 hc         1 12U       0.036700
     41 H52A        -8.6220     0.3230     0.1830 hc         1 12U       0.036700
     42 H51         -8.0220    -0.7440    -2.5820 hc         1 12U       0.035450
     43 H51A        -7.5130     0.7540    -1.8320 hc         1 12U       0.035450
     44 H50         -5.5490    -0.4750    -2.0600 hc         1 12U       0.041950
     45 H50A        -6.2800    -2.0040    -1.6500 hc         1 12U       0.041950
     46 H1           0.6840     1.0700    -1.2500 h1         1 12U       0.061700
     47 H2           0.4930     3.3350     0.8650 hc         1 12U       0.063200
     48 H2A          1.5490     3.2850    -0.5500 hc         1 12U       0.063200
     49 H3          -0.7170     4.6910    -0.8470 hc         1 12U       0.055200
     50 H3A         -0.4200     3.4690    -2.0890 hc         1 12U       0.055200
     51 H4          -2.2040     3.1770     0.4210 h1         1 12U       0.049700
     52 H4A         -2.6210     2.7980    -1.2720 h1         1 12U       0.049700
     53 HN23         2.5930     0.7230    -0.3130 hn         1 12U       0.320500
     54 H24          3.2280     0.3420     2.4470 h1         1 12U       0.060200
     55 H24A         2.7720    -1.2240     1.7420 h1         1 12U       0.060200
     56 H30          4.1720    -2.2850    -0.0050 ha         1 12U       0.122000
     57 H29          6.4010    -2.4840    -1.0280 ha         1 12U       0.128500
     58 HN10        10.0190     0.0470    -1.6970 hn         1 12U       0.371400
     59 HN11         8.4900    -2.6660    -0.7600 hn         1 12U       0.461500
     60 HN1A         9.9930    -1.9870    -1.2100 hn         1 12U       0.461500
     61 H27          7.4830     1.3830     0.6130 ha         1 12U       0.128500
     62 H26          5.2390     1.5720     1.6200 ha         1 12U       0.122000
@<TRIPOS>BOND
     1     1     2 2   
     2     1     3 1   
     3     1    12 1   
     4     3     4 1   
     5     3    30 1   
     6     3    31 1   
     7     4     5 1   
     8     4    32 1   
     9     5     6 1   
    10     5    11 1   
    11     5    33 1   
    12     6     7 1   
    13     6    34 1   
    14     6    35 1   
    15     7     8 1   
    16     7    36 1   
    17     7    37 1   
    18     8     9 1   
    19     8    38 1   
    20     8    39 1   
    21     9    10 1   
    22     9    40 1   
    23     9    41 1   
    24    10    11 1   
    25    10    42 1   
    26    10    43 1   
    27    11    44 1   
    28    11    45 1   
    29    12    13 1   
    30    12    18 1   
    31    13    14 1   
    32    13    16 1   
    33    13    46 1   
    34    14    15 2   
    35    14    19 1   
    36    16    17 1   
    37    16    47 1   
    38    16    48 1   
    39    17    18 1   
    40    17    49 1   
    41    17    50 1   
    42    18    51 1   
    43    18    52 1   
    44    19    20 1   
    45    19    53 1   
    46    20    21 1   
    47    20    54 1   
    48    20    55 1   
    49    21    22 ar  
    50    21    29 ar  
    51    22    23 ar  
    52    22    56 1   
    53    23    24 ar  
    54    23    57 1   
    55    24    25 1   
    56    24    28 ar  
    57    25    26 2   
    58    25    27 1   
    59    26    58 1   
    60    27    59 1   
    61    27    60 1   
    62    28    29 ar  
    63    28    61 1   
    64    29    62 1   
@<TRIPOS>SUBSTRUCTURE
     1 12U         1 TEMP              0 ****  ****    0 ROOT
