@<TRIPOS>MOLECULE
12U
   62    64     1     0     0
SMALL
bcc


@<TRIPOS>ATOM
      1 C14         -1.7350     0.8580    -0.2760 c          1 12U       0.677100
      2 O32         -0.9750    -0.1010    -0.3220 o          1 12U      -0.600100
      3 C5          -3.2430     0.6970    -0.2650 c3         1 12U       0.096800
      4 N21         -3.6100    -0.6710    -0.0130 n7         1 12U      -0.801200
      5 C49         -5.0480    -0.9280    -0.0170 c3         1 12U       0.181500
      6 C48         -5.2640    -2.3210     0.5800 c3         1 12U      -0.087900
      7 C47         -6.6910    -2.6920     0.9700 c3         1 12U      -0.066400
      8 C46         -7.7680    -2.5290    -0.1010 c3         1 12U      -0.070900
      9 C52         -8.0700    -1.0660    -0.4250 c3         1 12U      -0.070900
     10 C51         -7.1550    -0.4180    -1.4650 c3         1 12U      -0.066400
     11 C50         -5.6800    -0.8180    -1.4140 c3         1 12U      -0.087900
     12 N1          -1.2710     2.1170    -0.2590 n          1 12U      -0.473800
     13 C1           0.1570     2.3700    -0.2700 c5         1 12U       0.034700
     14 C7           0.8500     1.6740     0.8940 c          1 12U       0.668100
     15 O22          0.3580     1.6480     2.0120 o          1 12U      -0.595100
     16 C2           0.2490     3.8970    -0.1390 c5         1 12U      -0.086400
     17 C3          -1.0690     4.3870    -0.7280 c5         1 12U      -0.093400
     18 C4          -2.0660     3.3380    -0.2560 c5         1 12U       0.108000
     19 N23          2.0560     1.1670     0.6130 ns         1 12U      -0.564900
     20 C24          2.8600     0.4890     1.6130 c3         1 12U       0.152300
     21 C25          4.0770    -0.1140     0.9690 ca         1 12U      -0.102300
     22 C30          4.0140    -1.3780     0.3940 ca         1 12U      -0.122500
     23 C29          5.1250    -1.9330    -0.2220 ca         1 12U      -0.100500
     24 C28          6.3260    -1.2300    -0.2820 ca         1 12U      -0.137900
     25 C9           7.5330    -1.7970    -0.9460 ce         1 12U       0.658800
     26 N10          8.3980    -0.9920    -1.4310 n2         1 12U      -0.827100
     27 N11          7.5700    -3.1600    -1.0190 nv         1 12U      -0.965800
     28 C27          6.3860     0.0420     0.2830 ca         1 12U      -0.100500
     29 C26          5.2760     0.5910     0.9040 ca         1 12U      -0.122500
     30 H5          -3.6710     1.3300     0.5190 h1         1 12U       0.043700
     31 H5A         -3.6230     1.1110    -1.2150 h1         1 12U       0.043700
     32 HN21        -3.1560    -1.2780    -0.6860 hn         1 12U       0.372800
     33 H49         -5.4990    -0.1810     0.6500 h1         1 12U       0.057700
     34 H48         -4.8820    -3.0560    -0.1380 hc         1 12U       0.041950
     35 H48A        -4.6340    -2.4090     1.4680 hc         1 12U       0.041950
     36 H47         -6.6810    -3.7310     1.3110 hc         1 12U       0.035450
     37 H47A        -6.9910    -2.0980     1.8400 hc         1 12U       0.035450
     38 H46         -7.4970    -3.0790    -1.0090 hc         1 12U       0.036700
     39 H46A        -8.6810    -3.0020     0.2700 hc         1 12U       0.036700
     40 H52         -9.1010    -0.9720    -0.7770 hc         1 12U       0.036700
     41 H52A        -8.0310    -0.4930     0.5070 hc         1 12U       0.036700
     42 H51         -7.5280    -0.6500    -2.4670 hc         1 12U       0.035450
     43 H51A        -7.2350     0.6680    -1.3630 hc         1 12U       0.035450
     44 H50         -5.1280    -0.0890    -2.0140 hc         1 12U       0.041950
     45 H50A        -5.5360    -1.7770    -1.9230 hc         1 12U       0.041950
     46 H1           0.5920     2.0420    -1.2210 h1         1 12U       0.061700
     47 H2           0.3130     4.1820     0.9140 hc         1 12U       0.063200
     48 H2A          1.1270     4.2940    -0.6470 hc         1 12U       0.063200
     49 H3          -1.3350     5.3890    -0.3980 hc         1 12U       0.055200
     50 H3A         -1.0220     4.3920    -1.8190 hc         1 12U       0.055200
     51 H4          -2.4360     3.5640     0.7490 h1         1 12U       0.049700
     52 H4A         -2.9250     3.2550    -0.9220 h1         1 12U       0.049700
     53 HN23         2.3800     1.1690    -0.3410 hn         1 12U       0.320500
     54 H24          3.1550     1.1910     2.3970 h1         1 12U       0.060200
     55 H24A         2.2660    -0.2940     2.0910 h1         1 12U       0.060200
     56 H30          3.0880    -1.9400     0.4260 ha         1 12U       0.140000
     57 H29          5.0380    -2.9150    -0.6690 ha         1 12U       0.146500
     58 HN10         9.1840    -1.4960    -1.8320 hn         1 12U       0.371400
     59 HN11         7.1090    -3.6900    -0.2980 hn         1 12U       0.406300
     60 HN1A         8.4260    -3.5820    -1.3430 hn         1 12U       0.406300
     61 H27          7.3120     0.6000     0.2450 ha         1 12U       0.146500
     62 H26          5.3470     1.5750     1.3510 ha         1 12U       0.140000
@<TRIPOS>BOND
     1     1     2 2   
     2     1     3 1   
     3     1    12 1   
     4     3     4 1   
     5     3    30 1   
     6     3    31 1   
     7     4     5 1   
     8     4    32 1   
     9     5     6 1   
    10     5    11 1   
    11     5    33 1   
    12     6     7 1   
    13     6    34 1   
    14     6    35 1   
    15     7     8 1   
    16     7    36 1   
    17     7    37 1   
    18     8     9 1   
    19     8    38 1   
    20     8    39 1   
    21     9    10 1   
    22     9    40 1   
    23     9    41 1   
    24    10    11 1   
    25    10    42 1   
    26    10    43 1   
    27    11    44 1   
    28    11    45 1   
    29    12    13 1   
    30    12    18 1   
    31    13    14 1   
    32    13    16 1   
    33    13    46 1   
    34    14    15 2   
    35    14    19 1   
    36    16    17 1   
    37    16    47 1   
    38    16    48 1   
    39    17    18 1   
    40    17    49 1   
    41    17    50 1   
    42    18    51 1   
    43    18    52 1   
    44    19    20 1   
    45    19    53 1   
    46    20    21 1   
    47    20    54 1   
    48    20    55 1   
    49    21    22 ar  
    50    21    29 ar  
    51    22    23 ar  
    52    22    56 1   
    53    23    24 ar  
    54    23    57 1   
    55    24    25 1   
    56    24    28 ar  
    57    25    26 2   
    58    25    27 1   
    59    26    58 1   
    60    27    59 1   
    61    27    60 1   
    62    28    29 ar  
    63    28    61 1   
    64    29    62 1   
@<TRIPOS>SUBSTRUCTURE
     1 12U         1 TEMP              0 ****  ****    0 ROOT
