@<TRIPOS>MOLECULE
12V
   64    66     1     0     0
SMALL
bcc


@<TRIPOS>ATOM
      1 N1         112.2890    49.1380    61.5630 n          1 12V      -0.365000
      2 C2         112.3690    47.8720    61.0090 c          1 12V       0.835500
      3 O2         112.1560    47.6380    59.8390 o          1 12V      -0.645500
      4 N3         112.7080    46.8830    61.8950 ns         1 12V      -0.610500
      5 C4         112.9860    47.0000    63.2490 c          1 12V       0.738700
      6 O4         113.2680    46.0190    63.9100 o          1 12V      -0.647500
      7 C5         112.9010    48.3560    63.7340 cc         1 12V      -0.366200
      8 C6         112.5670    49.3420    62.8870 cd         1 12V       0.092600
      9 PA         111.5610    55.2180    63.2100 p5         1 12V       1.467800
     10 PB         109.0820    53.9640    64.2670 p5         1 12V       1.464800
     11 C1         107.6180    55.1790    62.4170 c6         1 12V       0.309200
     12 O1         107.8800    54.0100    63.1290 os         1 12V      -0.564200
     13 O1A        111.0200    56.5220    62.7240 o          1 12V      -0.834500
     14 C1B        111.9650    50.2660    60.7060 c5         1 12V       0.299500
     15 O1B        109.0290    52.5770    64.8130 o          1 12V      -0.838000
     16 C9         106.1330    55.5260    62.5450 c6         1 12V       0.112700
     17 N2         105.7980    55.7080    63.9380 ns         1 12V      -0.551900
     18 O2A        112.3900    55.1130    64.4500 o          1 12V      -0.834500
     19 C2B        110.7070    51.0330    61.1070 c5         1 12V       0.113100
     20 O2B        109.0130    55.1780    65.1370 o          1 12V      -0.838000
     21 C3         105.2250    54.4580    61.9390 c6         1 12V       0.138100
     22 O3         103.9000    54.8890    62.1340 oh         1 12V      -0.602800
     23 O3A        110.3740    54.0740    63.2700 os         1 12V      -0.746800
     24 C3B        110.9820    52.3790    60.4420 c5         1 12V       0.083100
     25 O3B        110.7070    52.2420    59.0670 oh         1 12V      -0.608800
     26 C10        105.4820    54.2170    60.4500 c6         1 12V       0.128100
     27 O9         104.5300    53.2500    60.0670 oh         1 12V      -0.640800
     28 C4B        112.4840    52.5330    60.7040 c5         1 12V       0.094100
     29 O4B        113.0090    51.2000    60.7550 os         1 12V      -0.437600
     30 C11        106.9090    53.7590    60.1460 c6         1 12V      -0.021600
     31 S5         108.0950    55.0350    60.6720 ss         1 12V      -0.363200
     32 C5B        112.8540    53.2500    61.9980 c3         1 12V       0.209400
     33 O5B        112.3730    54.5740    61.9310 os         1 12V      -0.572200
     34 C12        107.1640    53.5600    58.6550 c3         1 12V       0.138400
     35 O6         106.3140    52.5320    58.1760 oh         1 12V      -0.618800
     36 C7         106.1170    56.8220    64.6270 c          1 12V       0.691100
     37 O7         106.5740    57.8220    64.0930 o          1 12V      -0.614100
     38 C8         105.8870    56.7370    66.1140 c3         1 12V      -0.179100
     39 H5         113.1080    48.5690    64.7710 ha         1 12V       0.173000
     40 H6         112.5070    50.3630    63.2330 h4         1 12V       0.191000
     41 H1         108.2060    56.0280    62.7780 h2         1 12V       0.135700
     42 H1B        111.8400    49.8600    59.7010 h2         1 12V       0.106700
     43 H2         105.9640    56.4700    62.0200 h1         1 12V       0.081700
     44 HN2        105.5240    54.8910    64.4610 hn         1 12V       0.312500
     45 HO2        108.7970    50.7480    61.0710 ho         1 12V       0.428000
     46 H2B        110.6900    51.1930    62.1940 h1         1 12V       0.091700
     47 H3         105.4040    53.5050    62.4620 h1         1 12V       0.064700
     48 HO3        103.3170    54.2240    61.7520 ho         1 12V       0.403000
     49 H3B        110.3940    53.1870    60.8840 h1         1 12V       0.133700
     50 HO3B       110.8760    53.0880    58.6420 ho         1 12V       0.400000
     51 H4         105.3200    55.1670    59.9120 h1         1 12V       0.038700
     52 HO4        104.8000    52.8930    59.2080 ho         1 12V       0.430000
     53 H4B        112.9560    53.0600    59.8670 h1         1 12V       0.061700
     54 H7         107.1370    52.8300    60.6780 h1         1 12V       0.103700
     55 H5B        112.4550    52.7050    62.8590 h1         1 12V       0.025700
     56 H5BA       113.9440    53.2510    62.1030 h1         1 12V       0.025700
     57 H9         106.9760    54.5040    58.1300 h1         1 12V       0.039700
     58 H6'A       108.2160    53.2960    58.5010 h1         1 12V       0.039700
     59 HO6        106.3220    52.5500    57.2130 ho         1 12V       0.395000
     60 H8         105.5700    57.7030    66.5010 hc         1 12V       0.055700
     61 H8'A       105.1510    55.9840    66.3920 hc         1 12V       0.055700
     62 H8'B       106.8320    56.4750    66.5930 hc         1 12V       0.055700
     63 HN3        112.7600    45.9520    61.4980 hn         1 12V       0.322500
     64 O8         109.5760    50.3390    60.6810 oh         1 12V      -0.587800
@<TRIPOS>BOND
     1     1     2 1   
     2     1     8 1   
     3     1    14 1   
     4     2     3 2   
     5     2     4 1   
     6     4     5 1   
     7     4    63 1   
     8     5     6 2   
     9     5     7 1   
    10     7     8 2   
    11     7    39 1   
    12     8    40 1   
    13     9    13 1   
    14     9    18 1   
    15     9    23 1   
    16     9    33 1   
    17    10    12 1   
    18    10    15 1   
    19    10    20 1   
    20    10    23 1   
    21    11    12 1   
    22    11    16 1   
    23    11    31 1   
    24    11    41 1   
    25    14    19 1   
    26    14    29 1   
    27    14    42 1   
    28    16    17 1   
    29    16    21 1   
    30    16    43 1   
    31    17    36 1   
    32    17    44 1   
    33    19    24 1   
    34    19    46 1   
    35    19    64 1   
    36    21    22 1   
    37    21    26 1   
    38    21    47 1   
    39    22    48 1   
    40    24    25 1   
    41    24    28 1   
    42    24    49 1   
    43    25    50 1   
    44    26    27 1   
    45    26    30 1   
    46    26    51 1   
    47    27    52 1   
    48    28    29 1   
    49    28    32 1   
    50    28    53 1   
    51    30    31 1   
    52    30    34 1   
    53    30    54 1   
    54    32    33 1   
    55    32    55 1   
    56    32    56 1   
    57    34    35 1   
    58    34    57 1   
    59    34    58 1   
    60    35    59 1   
    61    36    37 2   
    62    36    38 1   
    63    38    60 1   
    64    38    61 1   
    65    38    62 1   
    66    45    64 1   
@<TRIPOS>SUBSTRUCTURE
     1 12V         1 TEMP              0 ****  ****    0 ROOT
