@<TRIPOS>MOLECULE
12V
   64    66     1     0     0
SMALL
No Charge or Current Charge


@<TRIPOS>ATOM
      1 N1         112.0550    49.5080    61.3630 n          1 12V      -0.298000
      2 C2         111.6750    48.3900    60.5960 c          1 12V       0.626000
      3 O2         111.6410    48.3890    59.3760 o          1 12V      -0.570000
      4 N3         111.3430    47.2690    61.2930 ns         1 12V      -0.476500
      5 C4         111.3390    47.0890    62.6360 c          1 12V       0.596200
      6 O4         111.0210    46.0310    63.1500 o          1 12V      -0.572000
      7 C5         111.7520    48.2700    63.3840 cc         1 12V      -0.416200
      8 C6         112.1010    49.4440    62.7560 cd         1 12V       0.042600
      9 PA         111.6520    55.1870    63.7470 p5         1 12V       1.467800
     10 PB         109.2890    54.0850    63.9950 p5         1 12V       1.464800
     11 C1         107.6570    54.9230    62.1420 c6         1 12V       0.380300
     12 O1         108.2260    53.8010    62.8250 os         1 12V      -0.587400
     13 O1A        111.4530    56.6640    63.6990 o          1 12V      -0.834500
     14 C1B        112.4000    50.7640    60.6490 c5         1 12V       0.322700
     15 O1B        109.5220    52.8260    64.7590 o          1 12V      -0.838000
     16 C9         106.1700    55.1840    62.5560 c6         1 12V       0.112700
     17 N2         106.0340    55.7350    63.9210 ns         1 12V      -0.484900
     18 O2A        112.0280    54.6890    65.1020 o          1 12V      -0.834500
     19 C2B        111.1920    51.7480    60.7790 c5         1 12V       0.136300
     20 O2B        108.8440    55.2180    64.8530 o          1 12V      -0.838000
     21 C3         105.3260    53.8800    62.3800 c6         1 12V       0.161300
     22 O3         103.9890    54.0570    62.8870 oh         1 12V      -0.665000
     23 O3A        110.4840    54.4150    63.0320 os         1 12V      -0.746800
     24 C3B        111.9360    53.0590    60.4090 c5         1 12V       0.106300
     25 O3B        112.1460    53.1160    58.9780 oh         1 12V      -0.731000
     26 C10        105.2310    53.4250    60.8880 c6         1 12V       0.151300
     27 O9         104.3660    52.2800    60.7940 oh         1 12V      -0.703000
     28 C4B        113.2770    52.8770    61.2200 c5         1 12V       0.117300
     29 O4B        113.5110    51.4400    61.2770 os         1 12V      -0.484000
     30 C11        106.6270    53.0930    60.2750 c6         1 12V       0.026300
     31 S5         107.7720    54.5530    60.3350 ss         1 12V      -0.459000
     32 C5B        113.2640    53.4180    62.6790 c3         1 12V       0.232600
     33 O5B        112.7900    54.7710    62.6870 os         1 12V      -0.595400
     34 C12        106.5460    52.5860    58.8020 c3         1 12V       0.161600
     35 O6         105.7580    51.3900    58.6690 oh         1 12V      -0.681000
     36 C7         106.3260    57.0250    64.2840 c          1 12V       0.624100
     37 O7         106.7380    57.8490    63.4790 o          1 12V      -0.614100
     38 C8         106.0800    57.3570    65.7500 c3         1 12V      -0.179100
     39 H5         111.7680    48.1640    64.4630 ha         1 12V       0.223000
     40 H6         112.4220    50.3540    63.2590 h4         1 12V       0.241000
     41 H1         108.2550    55.8340    62.3120 h2         1 12V       0.135700
     42 H1B        112.6320    50.5440    59.5990 h2         1 12V       0.106700
     43 H2         105.7660    55.9380    61.8660 h1         1 12V       0.081700
     44 HN2        105.6760    55.1280    64.6480 hn         1 12V       0.312500
     45 HO2        110.4460    52.0130    59.0400 ho         1 12V       0.527000
     46 H2B        110.8080    51.7840    61.8090 h1         1 12V       0.091700
     47 H3         105.8140    53.0740    62.9470 h1         1 12V       0.064700
     48 HO3        103.4670    53.3690    62.4120 ho         1 12V       0.442000
     49 H3B        111.3710    53.9400    60.7520 h1         1 12V       0.133700
     50 HO3B       112.6390    53.9490    58.7830 ho         1 12V       0.499000
     51 H4         104.8000    54.2520    60.3030 h1         1 12V       0.038700
     52 HO4        104.7110    51.7820    60.0020 ho         1 12V       0.469000
     53 H4B        114.1170    53.3520    60.6960 h1         1 12V       0.061700
     54 H7         107.0960    52.2990    60.8740 h1         1 12V       0.103700
     55 H5B        112.6240    52.7670    63.2900 h1         1 12V       0.025700
     56 H5BA       114.2810    53.3690    63.0880 h1         1 12V       0.025700
     57 H9         106.1250    53.3880    58.1790 h1         1 12V       0.039700
     58 H6'A       107.5690    52.4000    58.4500 h1         1 12V       0.039700
     59 HO6        105.8980    51.0560    57.7530 ho         1 12V       0.434000
     60 H8         106.3170    58.3990    65.9930 hc         1 12V       0.055700
     61 H8'A       105.0440    57.1070    66.0040 hc         1 12V       0.055700
     62 H8'B       106.6480    56.6570    66.3740 hc         1 12V       0.055700
     63 HN3        111.0700    46.4730    60.7400 hn         1 12V       0.322500
     64 O8         110.1370    51.5120    59.8360 oh         1 12V      -0.710000
@<TRIPOS>BOND
     1     1     2 1   
     2     1     8 1   
     3     1    14 1   
     4     2     3 2   
     5     2     4 1   
     6     4     5 1   
     7     4    63 1   
     8     5     6 2   
     9     5     7 1   
    10     7     8 2   
    11     7    39 1   
    12     8    40 1   
    13     9    13 1   
    14     9    18 1   
    15     9    23 1   
    16     9    33 1   
    17    10    12 1   
    18    10    15 1   
    19    10    20 1   
    20    10    23 1   
    21    11    12 1   
    22    11    16 1   
    23    11    31 1   
    24    11    41 1   
    25    14    19 1   
    26    14    29 1   
    27    14    42 1   
    28    16    17 1   
    29    16    21 1   
    30    16    43 1   
    31    17    36 1   
    32    17    44 1   
    33    19    24 1   
    34    19    46 1   
    35    19    64 1   
    36    21    22 1   
    37    21    26 1   
    38    21    47 1   
    39    22    48 1   
    40    24    25 1   
    41    24    28 1   
    42    24    49 1   
    43    25    50 1   
    44    26    27 1   
    45    26    30 1   
    46    26    51 1   
    47    27    52 1   
    48    28    29 1   
    49    28    32 1   
    50    28    53 1   
    51    30    31 1   
    52    30    34 1   
    53    30    54 1   
    54    32    33 1   
    55    32    55 1   
    56    32    56 1   
    57    34    35 1   
    58    34    57 1   
    59    34    58 1   
    60    35    59 1   
    61    36    37 2   
    62    36    38 1   
    63    38    60 1   
    64    38    61 1   
    65    38    62 1   
    66    45    64 1   
@<TRIPOS>SUBSTRUCTURE
     1 12V         1 TEMP              0 ****  ****    0 ROOT
