@<TRIPOS>MOLECULE
12W
   18    18     1     0     0
SMALL
bcc


@<TRIPOS>ATOM
      1 C25          1.6800    -0.1140     0.6050 c          1 12W       0.503100
      2 O26          2.0780     0.8490    -0.0570 o          1 12W      -0.564500
      3 O27          0.4240    -0.6300     0.3250 os         1 12W      -0.519900
      4 C28         -0.3960    -0.0100    -0.6430 c5         1 12W       0.186100
      5 C29         -1.1120     1.2300    -0.0900 c5         1 12W      -0.090900
      6 C30         -2.4600     0.7210     0.4830 c5         1 12W      -0.073900
      7 C31         -2.4360    -0.8020     0.3120 c5         1 12W      -0.073900
      8 C32         -1.5390    -0.9860    -0.9040 c5         1 12W      -0.090900
      9 H26          0.1710     0.2170    -1.5500 h1         1 12W       0.042700
     10 H27         -0.5040     1.7460     0.6500 hc         1 12W       0.034950
     11 H28         -1.2860     1.9410    -0.9020 hc         1 12W       0.034950
     12 H29         -2.6100     1.0200     1.5180 hc         1 12W       0.025950
     13 H30         -3.2900     1.1410    -0.0890 hc         1 12W       0.025950
     14 H31         -1.9830    -1.2850     1.1820 hc         1 12W       0.025950
     15 H32         -3.4310    -1.2290     0.1920 hc         1 12W       0.025950
     16 H33         -2.0670    -0.6770    -1.8100 hc         1 12W       0.034950
     17 H34         -1.1930    -2.0110    -1.0580 hc         1 12W       0.034950
     18 OXT          2.2200    -0.7470     1.5210 o          1 12W      -0.564500
@<TRIPOS>BOND
     1     1     2 1   
     2     1     3 1   
     3     1    18 1   
     4     3     4 1   
     5     4     5 1   
     6     4     8 1   
     7     4     9 1   
     8     5     6 1   
     9     5    10 1   
    10     5    11 1   
    11     6     7 1   
    12     6    12 1   
    13     6    13 1   
    14     7     8 1   
    15     7    14 1   
    16     7    15 1   
    17     8    16 1   
    18     8    17 1   
@<TRIPOS>SUBSTRUCTURE
     1 12W         1 TEMP              0 ****  ****    0 ROOT
