@<TRIPOS>MOLECULE
12W
   18    18     1     0     0
SMALL
No Charge or Current Charge


@<TRIPOS>ATOM
      1 C25          1.8140    -0.0170     0.3190 c          1 12W       0.823100
      2 O26          2.0040     1.0320    -0.2780 o          1 12W      -0.724500
      3 O27          0.6300    -0.6970     0.1940 os         1 12W      -0.543100
      4 C28         -0.4110    -0.0440    -0.5860 c5         1 12W       0.209300
      5 C29         -1.0510     1.1020     0.2790 c5         1 12W      -0.090900
      6 C30         -2.5730     0.8050     0.2260 c5         1 12W      -0.073900
      7 C31         -2.5700    -0.7360     0.3350 c5         1 12W      -0.073900
      8 C32         -1.5570    -1.0890    -0.7840 c5         1 12W      -0.090900
      9 H26         -0.0180     0.2960    -1.5550 h1         1 12W       0.042700
     10 H27         -0.6910     1.0810     1.3140 hc         1 12W       0.034950
     11 H28         -0.8190     2.0950    -0.1210 hc         1 12W       0.034950
     12 H29         -3.1200     1.2830     1.0460 hc         1 12W       0.025950
     13 H30         -3.0220     1.1460    -0.7150 hc         1 12W       0.025950
     14 H31         -2.2290    -1.0780     1.3210 hc         1 12W       0.025950
     15 H32         -3.5590    -1.1720     0.1560 hc         1 12W       0.025950
     16 H33         -2.0150    -0.9720    -1.7730 hc         1 12W       0.034950
     17 H34         -1.2080    -2.1260    -0.7180 hc         1 12W       0.034950
     18 OXT          2.6610    -0.5360     1.0240 o          1 12W      -0.724500
@<TRIPOS>BOND
     1     1     2 1   
     2     1     3 1   
     3     1    18 1   
     4     3     4 1   
     5     4     5 1   
     6     4     8 1   
     7     4     9 1   
     8     5     6 1   
     9     5    10 1   
    10     5    11 1   
    11     6     7 1   
    12     6    12 1   
    13     6    13 1   
    14     7     8 1   
    15     7    14 1   
    16     7    15 1   
    17     8    16 1   
    18     8    17 1   
@<TRIPOS>SUBSTRUCTURE
     1 12W         1 TEMP              0 ****  ****    0 ROOT
