@<TRIPOS>MOLECULE
12X
   55    58     1     0     0
SMALL
No Charge or Current Charge


@<TRIPOS>ATOM
      1 C10          0.3410     7.2520     0.2820 c          1 12X       0.718000
      2 O11         -0.5510     7.8090     0.9120 o          1 12X      -0.726000
      3 C12          0.5120     5.6790     0.4010 c5         1 12X       0.019500
      4 C13         -0.6610     4.9720    -0.3310 c5         1 12X      -0.090400
      5 C14         -0.4760     3.4970     0.1210 c5         1 12X       0.134300
      6 C15          0.2180     3.6340     1.5300 c5         1 12X       0.129800
      7 N16          0.4100     5.0890     1.7790 n7         1 12X      -0.843400
      8 O33          0.4490     2.8860    -0.8260 os         1 12X      -0.324100
      9 C34          0.6490     1.5520    -0.5210 ca         1 12X       0.232100
     10 C35         -0.4200     0.6470    -0.4850 ca         1 12X      -0.276000
     11 C36         -0.1800    -0.7060    -0.1970 ca         1 12X       0.393000
     12 N37          1.0810    -1.1530     0.0340 nb         1 12X      -0.715000
     13 C38          2.1320    -0.3010    -0.0220 ca         1 12X       0.360000
     14 C39          1.9520     1.0700    -0.3080 ca         1 12X      -0.149000
     15 C40          3.0620     1.9380    -0.3660 ca         1 12X       0.005000
     16 C41          4.3540     1.4450    -0.1380 ca         1 12X      -0.221000
     17 C42          4.5500     0.0800     0.1500 ca         1 12X       0.183100
     18 C43          3.4410    -0.7850     0.2070 ca         1 12X      -0.078900
     19 Br44         3.7280    -2.6550     0.6020 br         1 12X      -0.082100
     20 O45          5.8080    -0.4440     0.3810 os         1 12X      -0.330100
     21 C46          7.0000     0.3610     0.3450 c3         1 12X       0.151900
     22 C47         -1.3170    -1.6760    -0.1470 cc         1 12X       0.247000
     23 C48         -1.0720    -3.0020     0.1310 cd         1 12X      -0.256000
     24 S49         -2.5700    -3.9120     0.1280 ss         1 12X       0.036600
     25 C50         -3.4060    -2.3970    -0.2530 cd         1 12X       0.530300
     26 N51         -2.6360    -1.3310    -0.3640 nc         1 12X      -0.692000
     27 N52         -4.7530    -2.2580    -0.4360 ns         1 12X      -0.471400
     28 C53         -5.7400    -3.2090    -0.3720 c          1 12X       0.604100
     29 O54         -5.5240    -4.3860    -0.1260 o          1 12X      -0.576100
     30 C55         -7.1660    -2.6770    -0.6370 c3         1 12X      -0.132700
     31 C56         -7.7810    -3.3270    -1.8990 c3         1 12X      -0.083600
     32 C57         -8.0710    -2.8570     0.6060 c3         1 12X      -0.083600
     33 H9           1.4730     5.4100    -0.0610 h1         1 12X       0.060700
     34 H10         -1.6330     5.3600    -0.0060 hc         1 12X       0.060200
     35 H11         -0.6120     5.0930    -1.4200 hc         1 12X       0.060200
     36 H12         -1.4330     2.9610     0.1500 h1         1 12X       0.040700
     37 H13         -0.3910     3.1820     2.3250 h1         1 12X       0.034200
     38 H14          1.1920     3.1280     1.5410 h1         1 12X       0.034200
     39 H35         -1.4300     0.9790    -0.6970 ha         1 12X       0.150000
     40 H36          2.9310     2.9960    -0.5840 ha         1 12X       0.145000
     41 H37          5.1880     2.1390    -0.1900 ha         1 12X       0.118000
     42 H38          6.9550     1.1580     1.0980 h1         1 12X       0.041367
     43 H39          7.8810    -0.2570     0.5560 h1         1 12X       0.041367
     44 H40          7.1330     0.8160    -0.6450 h1         1 12X       0.041367
     45 H41         -0.1250    -3.4860     0.3320 h4         1 12X       0.180000
     46 H42         -5.0770    -1.3270    -0.6480 hn         1 12X       0.341500
     47 H43         -7.0980    -1.5990    -0.8310 hc         1 12X       0.062700
     48 H44         -7.1410    -3.1570    -2.7730 hc         1 12X       0.044533
     49 H45         -7.8980    -4.4100    -1.7660 hc         1 12X       0.044533
     50 H46         -8.7680    -2.9000    -2.1140 hc         1 12X       0.044533
     51 H47         -7.6330    -2.3590     1.4790 hc         1 12X       0.044533
     52 H48         -9.0630    -2.4230     0.4290 hc         1 12X       0.044533
     53 H49         -8.2010    -3.9200     0.8460 hc         1 12X       0.044533
     54 H2          -0.4460     5.4690     2.2090 hn         1 12X       0.433000
     55 OXT          1.1430     7.8860    -0.3920 o          1 12X      -0.726000
@<TRIPOS>BOND
     1     1     2 1   
     2     1     3 1   
     3     1    55 1   
     4     3     4 1   
     5     3     7 1   
     6     3    33 1   
     7     4     5 1   
     8     4    34 1   
     9     4    35 1   
    10     5     6 1   
    11     5     8 1   
    12     5    36 1   
    13     6     7 1   
    14     6    37 1   
    15     6    38 1   
    16     7    54 1   
    17     8     9 1   
    18     9    10 ar  
    19     9    14 ar  
    20    10    11 ar  
    21    10    39 1   
    22    11    12 ar  
    23    11    22 1   
    24    12    13 ar  
    25    13    14 ar  
    26    13    18 ar  
    27    14    15 ar  
    28    15    16 ar  
    29    15    40 1   
    30    16    17 ar  
    31    16    41 1   
    32    17    18 ar  
    33    17    20 1   
    34    18    19 1   
    35    20    21 1   
    36    21    42 1   
    37    21    43 1   
    38    21    44 1   
    39    22    23 2   
    40    22    26 1   
    41    23    24 1   
    42    23    45 1   
    43    24    25 1   
    44    25    26 2   
    45    25    27 1   
    46    27    28 1   
    47    27    46 1   
    48    28    29 2   
    49    28    30 1   
    50    30    31 1   
    51    30    32 1   
    52    30    47 1   
    53    31    48 1   
    54    31    49 1   
    55    31    50 1   
    56    32    51 1   
    57    32    52 1   
    58    32    53 1   
@<TRIPOS>SUBSTRUCTURE
     1 12X         1 TEMP              0 ****  ****    0 ROOT
