@<TRIPOS>MOLECULE
12X
   55    58     1     0     0
SMALL
bcc


@<TRIPOS>ATOM
      1 C10         -0.2180     7.1090     0.4540 c          1 12X       0.928600
      2 O11         -1.3050     7.5470     0.8800 o          1 12X      -0.831300
      3 C12          0.0080     5.5890     0.5250 c5         1 12X       0.019500
      4 C13         -0.2640     4.9260    -0.8330 c5         1 12X      -0.090400
      5 C14         -0.5210     3.4810    -0.4580 c5         1 12X       0.111100
      6 C15         -1.2010     3.5870     0.9190 c5         1 12X       0.129800
      7 N16         -0.8930     4.9150     1.4520 n7         1 12X      -0.788200
      8 O33          0.7600     2.8440    -0.3600 os         1 12X      -0.300900
      9 C34          0.8430     1.5280    -0.2240 ca         1 12X       0.232100
     10 C35         -0.2250     0.6630    -0.1790 ca         1 12X      -0.359300
     11 C36          0.0350    -0.7150    -0.0530 ca         1 12X       0.458300
     12 N37          1.2360    -1.2350     0.0290 nb         1 12X      -0.715000
     13 C38          2.2950    -0.4070    -0.0070 ca         1 12X       0.490600
     14 C39          2.1630     0.9990    -0.1330 ca         1 12X      -0.214300
     15 C40          3.3140     1.8060    -0.1620 ca         1 12X      -0.013000
     16 C41          4.5620     1.2540    -0.0720 ca         1 12X      -0.239000
     17 C42          4.7240    -0.1430     0.0520 ca         1 12X       0.183100
     18 C43          3.6000    -0.9480     0.0830 ca         1 12X      -0.144200
     19 BR44         3.8080    -2.8050     0.2460 br         1 12X      -0.082100
     20 O45          5.9160    -0.7380     0.1440 os         1 12X      -0.306900
     21 C46          7.0930     0.0520     0.0890 c3         1 12X       0.128700
     22 C47         -1.0890    -1.6600    -0.0130 cc         1 12X       0.312300
     23 C48         -0.9640    -3.0130     0.0340 cd         1 12X      -0.194400
     24 S49         -2.5110    -3.7560     0.0590 ss         1 12X      -0.108300
     25 C50         -3.2190    -2.1730     0.0090 cd         1 12X       0.530300
     26 N51         -2.3760    -1.1960    -0.0270 nc         1 12X      -0.692000
     27 N52         -4.5740    -1.9610     0.0190 ns         1 12X      -0.538400
     28 C53         -5.5130    -2.9520     0.0260 c          1 12X       0.671100
     29 O54         -5.1790    -4.1220     0.0410 o          1 12X      -0.576100
     30 C55         -6.9450    -2.4720    -0.0220 c3         1 12X      -0.132700
     31 C56         -7.3020    -2.1010    -1.4670 c3         1 12X      -0.083600
     32 C57         -7.8990    -3.5180     0.5350 c3         1 12X      -0.083600
     33 H9           1.0500     5.4020     0.8110 h1         1 12X       0.060700
     34 H10         -1.1810     5.3350    -1.2670 hc         1 12X       0.060200
     35 H11          0.5340     5.0420    -1.5660 hc         1 12X       0.060200
     36 H12         -1.1280     2.9540    -1.1980 h1         1 12X       0.040700
     37 H13         -2.2790     3.4440     0.8140 h1         1 12X       0.034200
     38 H14         -0.8460     2.7940     1.5840 h1         1 12X       0.034200
     39 H35         -1.2490     1.0000    -0.2400 ha         1 12X       0.168000
     40 H36          3.2220     2.8780    -0.2540 ha         1 12X       0.163000
     41 H37          5.4240     1.9060    -0.0970 ha         1 12X       0.136000
     42 H38          7.1510     0.7540     0.9230 h1         1 12X       0.041367
     43 H39          7.9250    -0.6430     0.1580 h1         1 12X       0.041367
     44 H40          7.1680     0.6020    -0.8510 h1         1 12X       0.041367
     45 H41         -0.0570    -3.5950     0.0510 h4         1 12X       0.198000
     46 H42         -4.8640    -0.9930     0.0220 hn         1 12X       0.341500
     47 H43         -7.0160    -1.5670     0.5890 hc         1 12X       0.062700
     48 H44         -6.6670    -1.3080    -1.8590 hc         1 12X       0.044533
     49 H45         -7.2120    -2.9670    -2.1240 hc         1 12X       0.044533
     50 H46         -8.3330    -1.7510    -1.5100 hc         1 12X       0.044533
     51 H47         -7.6410    -3.8000     1.5560 hc         1 12X       0.044533
     52 H48         -8.9120    -3.1170     0.5450 hc         1 12X       0.044533
     53 H49         -7.9040    -4.4200    -0.0770 hc         1 12X       0.044533
     54 H2          -1.7350     5.4750     1.4970 hn         1 12X       0.377800
     55 OXT          0.7000     7.7660    -0.0730 o          1 12X      -0.831300
@<TRIPOS>BOND
     1     1     2 1   
     2     1     3 1   
     3     1    55 1   
     4     3     4 1   
     5     3     7 1   
     6     3    33 1   
     7     4     5 1   
     8     4    34 1   
     9     4    35 1   
    10     5     6 1   
    11     5     8 1   
    12     5    36 1   
    13     6     7 1   
    14     6    37 1   
    15     6    38 1   
    16     7    54 1   
    17     8     9 1   
    18     9    10 ar  
    19     9    14 ar  
    20    10    11 ar  
    21    10    39 1   
    22    11    12 ar  
    23    11    22 1   
    24    12    13 ar  
    25    13    14 ar  
    26    13    18 ar  
    27    14    15 ar  
    28    15    16 ar  
    29    15    40 1   
    30    16    17 ar  
    31    16    41 1   
    32    17    18 ar  
    33    17    20 1   
    34    18    19 1   
    35    20    21 1   
    36    21    42 1   
    37    21    43 1   
    38    21    44 1   
    39    22    23 2   
    40    22    26 1   
    41    23    24 1   
    42    23    45 1   
    43    24    25 1   
    44    25    26 2   
    45    25    27 1   
    46    27    28 1   
    47    27    46 1   
    48    28    29 2   
    49    28    30 1   
    50    30    31 1   
    51    30    32 1   
    52    30    47 1   
    53    31    48 1   
    54    31    49 1   
    55    31    50 1   
    56    32    51 1   
    57    32    52 1   
    58    32    53 1   
@<TRIPOS>SUBSTRUCTURE
     1 12X         1 TEMP              0 ****  ****    0 ROOT
