@<TRIPOS>MOLECULE
12Y
   55    58     1     0     0
SMALL
No Charge or Current Charge


@<TRIPOS>ATOM
      1 C10          3.3460     6.0270    -0.0770 c          1 12Y       0.731000
      2 O11          4.3950     6.4110     0.4260 o          1 12Y      -0.726500
      3 C12          2.9150     4.5060     0.1380 c5         1 12Y       0.034500
      4 C13          1.5910     4.1580    -0.6000 c5         1 12Y      -0.049400
      5 C14          1.2590     2.7470    -0.0250 c5         1 12Y       0.146300
      6 C15          2.0060     2.7280     1.3640 c5         1 12Y       0.127800
      7 N16          2.5770     4.0850     1.5370 n7         1 12Y      -0.846400
      8 O33          1.8690     1.7730    -0.9240 os         1 12Y      -0.336100
      9 C34          1.6070     0.4850    -0.4950 ca         1 12Y       0.225100
     10 C35          0.2940     0.0180    -0.3470 ca         1 12Y      -0.274000
     11 C36          0.0610    -1.3050     0.0680 ca         1 12Y       0.384000
     12 N37          1.1000    -2.1480     0.3150 nb         1 12Y      -0.723000
     13 C38          2.3700    -1.7200     0.1520 ca         1 12Y       0.336000
     14 C39          2.6700    -0.4050    -0.2630 ca         1 12Y      -0.144000
     15 C40          4.0120    -0.0010    -0.4260 ca         1 12Y      -0.015000
     16 C41          5.0550    -0.9050    -0.1750 ca         1 12Y      -0.213000
     17 C42          4.7610    -2.2190     0.2400 ca         1 12Y       0.150100
     18 C43          3.4260    -2.6110     0.3990 ca         1 12Y      -0.159000
     19 O45          5.7440    -3.1520     0.5020 os         1 12Y      -0.348100
     20 C46          7.1440    -2.8500     0.3700 c3         1 12Y       0.153900
     21 C47         -1.3390    -1.8020     0.2360 cc         1 12Y       0.252000
     22 C48         -1.5620    -3.1000     0.6370 cd         1 12Y      -0.264000
     23 S49         -3.2820    -3.4160     0.7540 ss         1 12Y       0.035600
     24 C50         -3.5520    -1.7410     0.2430 cd         1 12Y       0.532300
     25 N51         -2.4630    -1.0310     0.0120 nc         1 12Y      -0.691000
     26 N52         -4.7710    -1.1480     0.0750 ns         1 12Y      -0.469400
     27 C53         -6.0250    -1.6780     0.2520 c          1 12Y       0.603100
     28 O54         -6.2230    -2.8290     0.6080 o          1 12Y      -0.578100
     29 C55         -7.1840    -0.6980    -0.0350 c3         1 12Y      -0.131700
     30 C56         -8.0560    -1.1920    -1.2150 c3         1 12Y      -0.084600
     31 C57         -8.0280    -0.4400     1.2370 c3         1 12Y      -0.084600
     32 H9           3.7330     3.8800    -0.2460 h1         1 12Y       0.008700
     33 H10          0.7940     4.8680    -0.3510 hc         1 12Y       0.063700
     34 H11          1.7010     4.1590    -1.6900 hc         1 12Y       0.063700
     35 H12          0.1750     2.5950     0.0560 h1         1 12Y       0.044700
     36 H13          1.3270     2.4790     2.1910 h1         1 12Y       0.024200
     37 H14          2.8160     1.9860     1.3670 h1         1 12Y       0.024200
     38 H35         -0.5490     0.6640    -0.5700 ha         1 12Y       0.152000
     39 H36          4.2530     1.0120    -0.7440 ha         1 12Y       0.138000
     40 H37          6.0790    -0.5680    -0.3080 ha         1 12Y       0.114000
     41 H38          3.2040    -3.6250     0.7180 ha         1 12Y       0.134000
     42 H39          7.4320    -2.0320     1.0430 h1         1 12Y       0.037033
     43 H40          7.7480    -3.7290     0.6260 h1         1 12Y       0.037033
     44 H41          7.3850    -2.5600    -0.6610 h1         1 12Y       0.037033
     45 H42         -0.8370    -3.8700     0.8650 h4         1 12Y       0.175000
     46 H43         -4.7580    -0.1850    -0.2210 hn         1 12Y       0.342500
     47 H44         -6.7520     0.2650    -0.3350 hc         1 12Y       0.061700
     48 H45         -8.5390    -2.1470    -0.9740 hc         1 12Y       0.045033
     49 H46         -8.8400    -0.4620    -1.4500 hc         1 12Y       0.045033
     50 H47         -7.4450    -1.3350    -2.1140 hc         1 12Y       0.045033
     51 H48         -8.5090    -1.3630     1.5840 hc         1 12Y       0.045033
     52 H49         -7.3960    -0.0570     2.0490 hc         1 12Y       0.045033
     53 H50         -8.8110     0.3020     1.0400 hc         1 12Y       0.045033
     54 OXT          2.6390     6.7870    -0.7290 o          1 12Y      -0.726500
     55 H2           3.4220     4.0570     2.1260 hn         1 12Y       0.425000
@<TRIPOS>BOND
     1     1     2 1   
     2     1     3 1   
     3     1    54 1   
     4     3     4 1   
     5     3     7 1   
     6     3    32 1   
     7     4     5 1   
     8     4    33 1   
     9     4    34 1   
    10     5     6 1   
    11     5     8 1   
    12     5    35 1   
    13     6     7 1   
    14     6    36 1   
    15     6    37 1   
    16     7    55 1   
    17     8     9 1   
    18     9    10 ar  
    19     9    14 ar  
    20    10    11 ar  
    21    10    38 1   
    22    11    12 ar  
    23    11    21 1   
    24    12    13 ar  
    25    13    14 ar  
    26    13    18 ar  
    27    14    15 ar  
    28    15    16 ar  
    29    15    39 1   
    30    16    17 ar  
    31    16    40 1   
    32    17    18 ar  
    33    17    19 1   
    34    18    41 1   
    35    19    20 1   
    36    20    42 1   
    37    20    43 1   
    38    20    44 1   
    39    21    22 2   
    40    21    25 1   
    41    22    23 1   
    42    22    45 1   
    43    23    24 1   
    44    24    25 2   
    45    24    26 1   
    46    26    27 1   
    47    26    46 1   
    48    27    28 2   
    49    27    29 1   
    50    29    30 1   
    51    29    31 1   
    52    29    47 1   
    53    30    48 1   
    54    30    49 1   
    55    30    50 1   
    56    31    51 1   
    57    31    52 1   
    58    31    53 1   
@<TRIPOS>SUBSTRUCTURE
     1 12Y         1 TEMP              0 ****  ****    0 ROOT
