@<TRIPOS>MOLECULE
12Y
   55    58     1     0     0
SMALL
bcc


@<TRIPOS>ATOM
      1 C10          2.4730     6.2020     0.3800 c          1 12Y       0.941600
      2 O11          1.8970     6.9490     1.1940 o          1 12Y      -0.831800
      3 C12          2.1620     4.7030     0.4660 c5         1 12Y       0.034500
      4 C13          2.0410     3.9790    -0.8690 c5         1 12Y      -0.049400
      5 C14          1.3000     2.6910    -0.5130 c5         1 12Y       0.123100
      6 C15          0.6390     2.9890     0.8520 c5         1 12Y       0.127800
      7 N16          0.8650     4.4090     1.0520 n7         1 12Y      -0.791200
      8 O33          2.2730     1.6460    -0.4130 os         1 12Y      -0.312900
      9 C34          1.8820     0.3900    -0.2330 ca         1 12Y       0.225100
     10 C35          0.5760    -0.0320    -0.1560 ca         1 12Y      -0.357300
     11 C36          0.3210    -1.4080     0.0230 ca         1 12Y       0.449300
     12 N37          1.2530    -2.3230     0.1270 nb         1 12Y      -0.723000
     13 C38          2.5460    -1.9290     0.0600 ca         1 12Y       0.466600
     14 C39          2.9230    -0.5750    -0.1220 ca         1 12Y      -0.209300
     15 C40          4.2900    -0.2500    -0.1780 ca         1 12Y      -0.033000
     16 C41          5.2550    -1.2170    -0.0620 ca         1 12Y      -0.231000
     17 C42          4.8810    -2.5690     0.1150 ca         1 12Y       0.150100
     18 C43          3.5470    -2.9090     0.1750 ca         1 12Y      -0.242300
     19 O45          5.7680    -3.5710     0.2310 os         1 12Y      -0.324900
     20 C46          7.1510    -3.2800     0.1610 c3         1 12Y       0.130700
     21 C47         -1.0710    -1.8730     0.1050 cc         1 12Y       0.317300
     22 C48         -1.4540    -3.1640     0.2930 cd         1 12Y      -0.202400
     23 S49         -3.1660    -3.2830     0.3310 ss         1 12Y      -0.109300
     24 C50         -3.2420    -1.5690     0.0870 cd         1 12Y       0.532300
     25 N51         -2.0990    -0.9770    -0.0110 nc         1 12Y      -0.691000
     26 N52         -4.4240    -0.8780    -0.0020 ns         1 12Y      -0.536400
     27 C53         -5.6610    -1.4420     0.1090 c          1 12Y       0.670100
     28 O54         -5.7850    -2.6410     0.2780 o          1 12Y      -0.578100
     29 C55         -6.8160    -0.4690     0.0570 c3         1 12Y      -0.131700
     30 C56         -8.0240    -1.0920    -0.6310 c3         1 12Y      -0.084600
     31 C57         -7.1510    -0.0360     1.4880 c3         1 12Y      -0.084600
     32 H9           2.9890     4.2340     1.0350 h1         1 12Y       0.008700
     33 H10          1.4310     4.5660    -1.5590 hc         1 12Y       0.063700
     34 H11          2.9950     3.7820    -1.3550 hc         1 12Y       0.063700
     35 H12          0.5690     2.4180    -1.2800 h1         1 12Y       0.044700
     36 H13         -0.4280     2.7570     0.8570 h1         1 12Y       0.024200
     37 H14          1.1110     2.3600     1.6210 h1         1 12Y       0.024200
     38 H35         -0.2590     0.6480    -0.2220 ha         1 12Y       0.170000
     39 H36          4.5960     0.7780    -0.3140 ha         1 12Y       0.156000
     40 H37          6.2950    -0.9260    -0.1080 ha         1 12Y       0.132000
     41 H38          3.2520    -3.9420     0.3130 ha         1 12Y       0.152000
     42 H39          7.4720    -2.6160     0.9670 h1         1 12Y       0.037033
     43 H40          7.6690    -4.2300     0.2670 h1         1 12Y       0.037033
     44 H41          7.4270    -2.8340    -0.7970 h1         1 12Y       0.037033
     45 H42         -0.8250    -4.0320     0.4120 h4         1 12Y       0.193000
     46 H43         -4.3370     0.1170    -0.1520 hn         1 12Y       0.342500
     47 H44         -6.5020     0.4150    -0.5050 hc         1 12Y       0.061700
     48 H45         -8.3790    -1.9670    -0.0870 hc         1 12Y       0.045033
     49 H46         -8.8380    -0.3690    -0.6710 hc         1 12Y       0.045033
     50 H47         -7.7970    -1.3950    -1.6530 hc         1 12Y       0.045033
     51 H48         -7.4900    -0.8860     2.0820 hc         1 12Y       0.045033
     52 H49         -6.2940     0.4110     1.9920 hc         1 12Y       0.045033
     53 H50         -7.9510     0.7040     1.4720 hc         1 12Y       0.045033
     54 OXT          3.3120     6.5370    -0.4810 o          1 12Y      -0.831800
     55 H2           0.8160     4.6670     2.0270 hn         1 12Y       0.369800
@<TRIPOS>BOND
     1     1     2 1   
     2     1     3 1   
     3     1    54 1   
     4     3     4 1   
     5     3     7 1   
     6     3    32 1   
     7     4     5 1   
     8     4    33 1   
     9     4    34 1   
    10     5     6 1   
    11     5     8 1   
    12     5    35 1   
    13     6     7 1   
    14     6    36 1   
    15     6    37 1   
    16     7    55 1   
    17     8     9 1   
    18     9    10 ar  
    19     9    14 ar  
    20    10    11 ar  
    21    10    38 1   
    22    11    12 ar  
    23    11    21 1   
    24    12    13 ar  
    25    13    14 ar  
    26    13    18 ar  
    27    14    15 ar  
    28    15    16 ar  
    29    15    39 1   
    30    16    17 ar  
    31    16    40 1   
    32    17    18 ar  
    33    17    19 1   
    34    18    41 1   
    35    19    20 1   
    36    20    42 1   
    37    20    43 1   
    38    20    44 1   
    39    21    22 2   
    40    21    25 1   
    41    22    23 1   
    42    22    45 1   
    43    23    24 1   
    44    24    25 2   
    45    24    26 1   
    46    26    27 1   
    47    26    46 1   
    48    27    28 2   
    49    27    29 1   
    50    29    30 1   
    51    29    31 1   
    52    29    47 1   
    53    30    48 1   
    54    30    49 1   
    55    30    50 1   
    56    31    51 1   
    57    31    52 1   
    58    31    53 1   
@<TRIPOS>SUBSTRUCTURE
     1 12Y         1 TEMP              0 ****  ****    0 ROOT
