@<TRIPOS>MOLECULE
12Z
   39    41     1     0     0
SMALL
bcc


@<TRIPOS>ATOM
      1 C1           1.1970    -0.8190     0.0840 cc         1 12Z      -0.397000
      2 C2           0.1400    -1.7500     0.0930 cd         1 12Z       0.770200
      3 N3          -1.1060    -1.2440    -0.0300 nd         1 12Z      -0.826000
      4 C4          -1.0770     0.0610    -0.1540 cc         1 12Z       0.786300
      5 S5           0.5070     0.7890    -0.1260 ss         1 12Z      -0.257300
      6 C6           2.5750    -1.1270     0.1390 c          1 12Z       0.652300
      7 N7           0.2930    -3.0650     0.2170 nv         1 12Z      -0.939500
      8 N8          -2.1610     0.8100    -0.3050 nu         1 12Z      -0.853900
      9 O9           3.0060    -2.2870     0.1760 o          1 12Z      -0.602100
     10 C10          5.4920     1.9090     0.0070 ca         1 12Z       0.410200
     11 N11          5.5880     0.8670    -0.8130 nb         1 12Z      -0.672000
     12 C12          4.6500    -0.0660    -0.7430 ca         1 12Z       0.442200
     13 C13          3.5590    -0.0020     0.1220 ca         1 12Z      -0.263900
     14 C14          3.4760     1.0900     0.9780 ca         1 12Z      -0.067000
     15 C15          4.4620     2.0620     0.9220 ca         1 12Z      -0.257300
     16 C16         -5.8750     0.7290    -1.0310 c6         1 12Z      -0.071400
     17 C17         -4.4400     1.2490    -1.0190 c6         1 12Z      -0.091400
     18 C18         -3.5150     0.2740    -0.2980 c6         1 12Z       0.236500
     19 C19         -4.0090    -0.0130     1.1190 c6         1 12Z      -0.091400
     20 C20         -5.4430    -0.5340     1.1010 c6         1 12Z      -0.071400
     21 C21         -6.3740     0.4340     0.3790 c6         1 12Z      -0.078400
     22 HN7          1.2160    -3.4580     0.2910 hn         1 12Z       0.461800
     23 HN7A        -0.5110    -3.6670     0.2170 hn         1 12Z       0.461800
     24 HN8         -2.0550     1.8120    -0.3290 hn         1 12Z       0.447800
     25 H12          4.7560    -0.9090    -1.4170 h4         1 12Z       0.031100
     26 H14          2.6710     1.1760     1.6970 ha         1 12Z       0.144000
     27 H15          4.4390     2.9210     1.5790 ha         1 12Z       0.141000
     28 H16         -6.5230     1.4590    -1.5220 hc         1 12Z       0.044700
     29 H16A        -5.9220    -0.1830    -1.6350 hc         1 12Z       0.044700
     30 H17         -4.0840     1.4120    -2.0390 hc         1 12Z       0.048200
     31 H17A        -4.4110     2.2200    -0.5110 hc         1 12Z       0.048200
     32 H18         -3.4960    -0.6650    -0.8600 h1         1 12Z       0.081700
     33 H19         -3.3470    -0.7370     1.6000 hc         1 12Z       0.048200
     34 H19A        -3.9580     0.9090     1.7080 hc         1 12Z       0.048200
     35 H20         -5.4690    -1.5080     0.6010 hc         1 12Z       0.044700
     36 H20A        -5.7860    -0.7040     2.1230 hc         1 12Z       0.044700
     37 H21         -6.4290     1.3700     0.9450 hc         1 12Z       0.042200
     38 H21A        -7.3890     0.0310     0.3420 hc         1 12Z       0.042200
     39 H10          6.2740     2.6560    -0.0660 h4         1 12Z       0.017100
@<TRIPOS>BOND
     1     1     2 2   
     2     1     5 1   
     3     1     6 1   
     4     2     3 1   
     5     2     7 1   
     6     3     4 2   
     7     4     5 1   
     8     4     8 1   
     9     6     9 2   
    10     6    13 1   
    11     7    22 1   
    12     7    23 1   
    13     8    18 1   
    14     8    24 1   
    15    10    11 ar  
    16    10    15 ar  
    17    10    39 1   
    18    11    12 ar  
    19    12    13 ar  
    20    12    25 1   
    21    13    14 ar  
    22    14    15 ar  
    23    14    26 1   
    24    15    27 1   
    25    16    17 1   
    26    16    21 1   
    27    16    28 1   
    28    16    29 1   
    29    17    18 1   
    30    17    30 1   
    31    17    31 1   
    32    18    19 1   
    33    18    32 1   
    34    19    20 1   
    35    19    33 1   
    36    19    34 1   
    37    20    21 1   
    38    20    35 1   
    39    20    36 1   
    40    21    37 1   
    41    21    38 1   
@<TRIPOS>SUBSTRUCTURE
     1 12Z         1 TEMP              0 ****  ****    0 ROOT
