@<TRIPOS>MOLECULE
12Z
   39    41     1     0     0
SMALL
No Charge or Current Charge


@<TRIPOS>ATOM
      1 C1           1.2340    -0.7840    -0.7640 cc         1 12Z      -0.476600
      2 C2           0.2700    -1.6710    -0.4080 cd         1 12Z       0.704900
      3 N3          -1.0150    -1.2550    -0.4120 nd         1 12Z      -0.826000
      4 C4          -1.0280     0.0210    -0.7180 cc         1 12Z       0.786300
      5 S5           0.5130     0.7840    -1.0280 ss         1 12Z      -0.112400
      6 C6           2.6700    -1.0690    -0.6360 c          1 12Z       0.652300
      7 N7           0.4160    -2.9290    -0.0520 nv         1 12Z      -1.049900
      8 N8          -2.2100     0.6960    -0.7850 nu         1 12Z      -0.909100
      9 O9           3.1180    -2.1820    -0.8840 o          1 12Z      -0.602100
     10 C10          5.3410     1.7930     1.0330 ca         1 12Z       0.344900
     11 N11          5.7950     0.8870     0.1380 nb         1 12Z      -0.672000
     12 C12          4.9070    -0.0040    -0.3670 ca         1 12Z       0.376900
     13 C13          3.5460    -0.0210    -0.0180 ca         1 12Z      -0.198600
     14 C14          3.0850     0.9140     0.9330 ca         1 12Z      -0.049000
     15 C15          4.0040     1.8360     1.4580 ca         1 12Z      -0.174000
     16 C16         -6.0350     0.3520    -0.7950 c6         1 12Z      -0.071400
     17 C17         -4.6270     0.8310    -1.2320 c6         1 12Z      -0.091400
     18 C18         -3.5180     0.1580    -0.3850 c6         1 12Z       0.236500
     19 C19         -3.7490     0.4210     1.1260 c6         1 12Z      -0.091400
     20 C20         -5.1550    -0.0570     1.5710 c6         1 12Z      -0.071400
     21 C21         -6.2660     0.6020     0.7160 c6         1 12Z      -0.078400
     22 HN7          1.2780    -3.3610    -0.3640 hn         1 12Z       0.517000
     23 HN7A        -0.4230    -3.4870    -0.1380 hn         1 12Z       0.517000
     24 HN8         -2.1080     1.6880    -0.9750 hn         1 12Z       0.503000
     25 H12          5.3090    -0.7180    -1.0870 h4         1 12Z       0.031100
     26 H14          2.0550     0.9180     1.2810 ha         1 12Z       0.126000
     27 H15          3.6920     2.5740     2.1930 ha         1 12Z       0.123000
     28 H16         -6.8050     0.8730    -1.3810 hc         1 12Z       0.044700
     29 H16A        -6.1470    -0.7190    -1.0140 hc         1 12Z       0.044700
     30 H17         -4.4740     0.6020    -2.2950 hc         1 12Z       0.048200
     31 H17A        -4.5670     1.9240    -1.1330 hc         1 12Z       0.048200
     32 H18         -3.5690    -0.9290    -0.5630 h1         1 12Z       0.081700
     33 H19         -2.9810    -0.0960     1.7180 hc         1 12Z       0.048200
     34 H19A        -3.6410     1.4930     1.3410 hc         1 12Z       0.048200
     35 H20         -5.2190    -1.1500     1.4820 hc         1 12Z       0.044700
     36 H20A        -5.3110     0.1790     2.6320 hc         1 12Z       0.044700
     37 H21         -6.2910     1.6830     0.9130 hc         1 12Z       0.042200
     38 H21A        -7.2480     0.2090     1.0140 hc         1 12Z       0.042200
     39 H10          6.0730     2.4970     1.4260 h4         1 12Z       0.017100
@<TRIPOS>BOND
     1     1     2 2   
     2     1     5 1   
     3     1     6 1   
     4     2     3 1   
     5     2     7 1   
     6     3     4 2   
     7     4     5 1   
     8     4     8 1   
     9     6     9 2   
    10     6    13 1   
    11     7    22 1   
    12     7    23 1   
    13     8    18 1   
    14     8    24 1   
    15    10    11 ar  
    16    10    15 ar  
    17    10    39 1   
    18    11    12 ar  
    19    12    13 ar  
    20    12    25 1   
    21    13    14 ar  
    22    14    15 ar  
    23    14    26 1   
    24    15    27 1   
    25    16    17 1   
    26    16    21 1   
    27    16    28 1   
    28    16    29 1   
    29    17    18 1   
    30    17    30 1   
    31    17    31 1   
    32    18    19 1   
    33    18    32 1   
    34    19    20 1   
    35    19    33 1   
    36    19    34 1   
    37    20    21 1   
    38    20    35 1   
    39    20    36 1   
    40    21    37 1   
    41    21    38 1   
@<TRIPOS>SUBSTRUCTURE
     1 12Z         1 TEMP              0 ****  ****    0 ROOT
