@<TRIPOS>MOLECULE
130
   41    44     1     0     0
SMALL
bcc


@<TRIPOS>ATOM
      1 C1           0.5640     0.0210     4.6980 ca         1 130      -0.210900
      2 C2          -0.8070     0.0210     5.0220 ca         1 130      -0.091000
      3 C3          -1.7890     0.0220     4.0500 ca         1 130      -0.131000
      4 C4          -1.3630     0.0110     2.7290 ca         1 130      -0.073200
      5 C5          -0.0030     0.0040     2.3830 ca         1 130       0.091400
      6 C6           0.9740     0.0120     3.3720 ca         1 130      -0.056000
      7 C7           1.5940     0.0540     5.7740 ce         1 130       0.660800
      8 N1           1.2550    -0.6080     6.9180 nv         1 130      -0.920800
      9 N2           2.7080     0.6750     5.6940 n2         1 130      -0.841100
     10 N3          -2.0340     0.0030     1.5370 na         1 130      -0.249300
     11 N4           0.1160    -0.0130     1.0180 nc         1 130      -0.645100
     12 C8          -1.1110    -0.0110     0.5420 cd         1 130       0.510400
     13 C9          -1.4190    -0.0200    -0.8780 ca         1 130      -0.251900
     14 C10         -2.7390    -0.0040    -1.3360 ca         1 130      -0.067000
     15 C11         -3.0180     0.0030    -2.6870 ca         1 130      -0.182000
     16 C12         -1.9680    -0.0110    -3.5980 ca         1 130      -0.058000
     17 C13         -0.6430    -0.0350    -3.1850 cp         1 130      -0.092000
     18 C14         -0.3590    -0.0320    -1.8090 ca         1 130       0.231100
     19 O6           0.9170    -0.0220    -1.4320 oh         1 130      -0.504100
     20 C1B          0.4450    -0.0360    -4.1890 cp         1 130      -0.025000
     21 C2B          0.4670     0.9380    -5.1860 ca         1 130      -0.108500
     22 C3B          1.4540     0.9340    -6.1630 ca         1 130      -0.132000
     23 C4B          2.4350    -0.0470    -6.1570 ca         1 130      -0.124000
     24 C5B          2.4200    -1.0240    -5.1690 ca         1 130      -0.132000
     25 C6B          1.4360    -1.0180    -4.1920 ca         1 130      -0.108500
     26 HC2         -1.1060     0.0430     6.0620 ha         1 130       0.146000
     27 HC3         -2.8380     0.0350     4.3130 ha         1 130       0.141000
     28 HC6          2.0230    -0.0120     3.1050 ha         1 130       0.154000
     29 HH11         1.9870    -0.7060     7.6040 hn         1 130       0.411800
     30 HH12         0.6580    -1.4150     6.8400 hn         1 130       0.411800
     31 HH21         2.7600     1.2070     4.8330 hn         1 130       0.390400
     32 HN3         -3.0350     0.0050     1.4290 hn         1 130       0.312700
     33 HC'2        -3.5610     0.0040    -0.6330 ha         1 130       0.117000
     34 HC'3        -4.0430     0.0130    -3.0320 ha         1 130       0.138000
     35 HC'4        -2.1820    -0.0180    -4.6600 ha         1 130       0.139000
     36 HO6          0.9630    -0.0190    -0.4400 ho         1 130       0.490000
     37 H2          -0.2880     1.7150    -5.1920 ha         1 130       0.133000
     38 H3           1.4560     1.7020    -6.9250 ha         1 130       0.129500
     39 H4           3.2050    -0.0530    -6.9170 ha         1 130       0.129000
     40 H5           3.1770    -1.7980    -5.1600 ha         1 130       0.129500
     41 H6           1.4310    -1.7950    -3.4380 ha         1 130       0.133000
@<TRIPOS>BOND
     1     1     2 ar  
     2     1     6 ar  
     3     1     7 1   
     4     2     3 ar  
     5     2    26 1   
     6     3     4 ar  
     7     3    27 1   
     8     4     5 ar  
     9     4    10 1   
    10     5     6 ar  
    11     5    11 1   
    12     6    28 1   
    13     7     8 1   
    14     7     9 2   
    15     8    29 1   
    16     8    30 1   
    17     9    31 1   
    18    10    12 1   
    19    10    32 1   
    20    11    12 2   
    21    12    13 1   
    22    13    14 ar  
    23    13    18 ar  
    24    14    15 ar  
    25    14    33 1   
    26    15    16 ar  
    27    15    34 1   
    28    16    17 ar  
    29    16    35 1   
    30    17    18 ar  
    31    17    20 1   
    32    18    19 1   
    33    19    36 1   
    34    20    21 ar  
    35    20    25 ar  
    36    21    22 ar  
    37    21    37 1   
    38    22    23 ar  
    39    22    38 1   
    40    23    24 ar  
    41    23    39 1   
    42    24    25 ar  
    43    24    40 1   
    44    25    41 1   
@<TRIPOS>SUBSTRUCTURE
     1 130         1 TEMP              0 ****  ****    0 ROOT
