@<TRIPOS>MOLECULE
130
   41    44     1     0     0
SMALL
No Charge or Current Charge


@<TRIPOS>ATOM
      1 C1           0.5370     0.0050     4.8320 ca         1 130      -0.210900
      2 C2          -0.8580     0.0210     5.1190 ca         1 130      -0.073000
      3 C3          -1.8080     0.0150     4.0780 ca         1 130      -0.113000
      4 C4          -1.3370     0.0070     2.7620 ca         1 130      -0.073200
      5 C5          -0.0110     0.0110     2.4590 ca         1 130       0.091400
      6 C6           0.9570     0.0170     3.4740 ca         1 130      -0.038000
      7 C7           1.5410     0.0540     5.9350 ce         1 130       0.660800
      8 N1           1.2330    -0.5610     7.0890 nv         1 130      -1.031200
      9 N2           2.7180     0.5030     5.7910 n2         1 130      -0.841100
     10 N3          -2.0490     0.0040     1.5960 na         1 130      -0.299600
     11 N4           0.1930     0.0090     1.0910 nc         1 130      -0.645100
     12 C8          -1.0660     0.0040     0.5980 cd         1 130       0.510400
     13 C9          -1.3430     0.0020    -0.8610 ca         1 130      -0.251900
     14 C10         -2.6860     0.0160    -1.3030 ca         1 130      -0.049000
     15 C11         -2.9930     0.0250    -2.6700 ca         1 130      -0.164000
     16 C12         -1.9700     0.0150    -3.6230 ca         1 130      -0.040000
     17 C13         -0.6120    -0.0080    -3.2310 cp         1 130      -0.092000
     18 C14         -0.3110    -0.0080    -1.8380 ca         1 130       0.231100
     19 O6           0.9900     0.0110    -1.4330 oh         1 130      -0.543100
     20 C1B          0.4500    -0.0230    -4.2880 cp         1 130      -0.025000
     21 C2B          0.3980     0.8870    -5.3730 ca         1 130      -0.090500
     22 C3B          1.3780     0.8720    -6.3810 ca         1 130      -0.114000
     23 C4B          2.4270    -0.0600    -6.3270 ca         1 130      -0.106000
     24 C5B          2.4930    -0.9780    -5.2660 ca         1 130      -0.114000
     25 C6B          1.5130    -0.9610    -4.2590 ca         1 130      -0.090500
     26 HC2         -1.2100     0.0480     6.1490 ha         1 130       0.128000
     27 HC3         -2.8740     0.0240     4.2950 ha         1 130       0.123000
     28 HC6          2.0100     0.0140     3.2040 ha         1 130       0.136000
     29 HH11         2.0410    -0.7870     7.6560 hn         1 130       0.467000
     30 HH12         0.5230    -1.2800     7.0250 hn         1 130       0.467000
     31 HH21         2.7570     0.9990     4.8920 hn         1 130       0.390400
     32 HN3         -3.0510     0.0000     1.4660 hn         1 130       0.363000
     33 HC'2        -3.5100     0.0250    -0.5930 ha         1 130       0.099000
     34 HC'3        -4.0330     0.0380    -2.9910 ha         1 130       0.120000
     35 HC'4        -2.2280     0.0130    -4.6800 ha         1 130       0.121000
     36 HO6          0.9540     0.0160    -0.4380 ho         1 130       0.529000
     37 H2          -0.4070     1.6170    -5.4260 ha         1 130       0.115000
     38 H3           1.3230     1.5830    -7.2020 ha         1 130       0.111500
     39 H4           3.1860    -0.0720    -7.1070 ha         1 130       0.111000
     40 H5           3.3020    -1.7040    -5.2250 ha         1 130       0.111500
     41 H6           1.5700    -1.6860    -3.4510 ha         1 130       0.115000
@<TRIPOS>BOND
     1     1     2 ar  
     2     1     6 ar  
     3     1     7 1   
     4     2     3 ar  
     5     2    26 1   
     6     3     4 ar  
     7     3    27 1   
     8     4     5 ar  
     9     4    10 1   
    10     5     6 ar  
    11     5    11 1   
    12     6    28 1   
    13     7     8 1   
    14     7     9 2   
    15     8    29 1   
    16     8    30 1   
    17     9    31 1   
    18    10    12 1   
    19    10    32 1   
    20    11    12 2   
    21    12    13 1   
    22    13    14 ar  
    23    13    18 ar  
    24    14    15 ar  
    25    14    33 1   
    26    15    16 ar  
    27    15    34 1   
    28    16    17 ar  
    29    16    35 1   
    30    17    18 ar  
    31    17    20 1   
    32    18    19 1   
    33    19    36 1   
    34    20    21 ar  
    35    20    25 ar  
    36    21    22 ar  
    37    21    37 1   
    38    22    23 ar  
    39    22    38 1   
    40    23    24 ar  
    41    23    39 1   
    42    24    25 ar  
    43    24    40 1   
    44    25    41 1   
@<TRIPOS>SUBSTRUCTURE
     1 130         1 TEMP              0 ****  ****    0 ROOT
