@<TRIPOS>MOLECULE
132
   43    46     1     0     0
SMALL
bcc


@<TRIPOS>ATOM
      1 C1          -4.4610     0.1890     0.2040 ca         1 132      -0.308900
      2 C2          -4.0130    -1.1080    -0.1180 ca         1 132       0.050400
      3 C3          -2.6770    -1.3870    -0.2850 ca         1 132      -0.106000
      4 C4          -1.7790    -0.3390    -0.1040 ca         1 132      -0.011200
      5 C5          -2.1960     0.9720     0.2220 ca         1 132      -0.102800
      6 C6          -3.5560     1.2270     0.3640 ca         1 132      -0.014000
      7 C7          -5.8840     0.5010     0.3930 ce         1 132       0.535400
      8 N1          -6.5620    -0.1050     1.3350 nv         1 132      -0.464100
      9 N2          -6.4250     1.4140    -0.3770 nv         1 132      -0.448200
     10 N3          -0.4300    -0.3250    -0.1860 na         1 132      -0.129400
     11 C9          -1.0230     1.7620     0.3370 cc         1 132      -0.188200
     12 C8           0.0470     0.9390     0.0780 cd         1 132       0.068700
     13 C10          1.4660     1.2930     0.0570 ca         1 132      -0.107800
     14 C11          1.8180     2.6460     0.0450 ca         1 132      -0.066000
     15 C12          3.1360     3.0540     0.0330 ca         1 132      -0.157000
     16 C13          4.1460     2.1040     0.0370 ca         1 132      -0.049000
     17 C14          3.8440     0.7490     0.0570 cp         1 132      -0.113000
     18 C15          2.5030     0.3480     0.0540 ca         1 132       0.172100
     19 O6           2.1680    -0.9600     0.0430 oh         1 132      -0.534100
     20 C1B          4.9270    -0.2620     0.0660 cp         1 132      -0.076000
     21 C2B          5.8330    -0.3330    -0.9920 ca         1 132      -0.120000
     22 C3B          6.8610    -1.2630    -0.9790 ca         1 132      -0.123000
     23 C4B          6.9950    -2.1410     0.0890 ca         1 132      -0.110000
     24 C5B          6.0990    -2.0790     1.1470 ca         1 132      -0.123000
     25 C6B          5.0720    -1.1460     1.1370 ca         1 132      -0.120000
     26 CL2         -5.1610    -2.3770    -0.3870 cl         1 132      -0.085400
     27 HC3         -2.3460    -2.3810    -0.5550 ha         1 132       0.173000
     28 HC6         -3.9040     2.2150     0.6340 ha         1 132       0.145000
     29 HH11        -7.5490     0.0370     1.4780 hn         1 132       0.326450
     30 HH12        -6.0890    -0.7140     1.9810 hn         1 132       0.326450
     31 HH21        -5.9040     1.7800    -1.1570 hn         1 132       0.326450
     32 HH22        -7.3670     1.7500    -0.2510 hn         1 132       0.326450
     33 HN3          0.1530    -1.1200    -0.3850 hn         1 132       0.337700
     34 HC9         -0.9850     2.8060     0.5960 ha         1 132       0.170000
     35 HC'2         1.0370     3.3940     0.0280 ha         1 132       0.137000
     36 HC'3         3.3770     4.1080     0.0200 ha         1 132       0.150000
     37 HC'4         5.1840     2.4100     0.0380 ha         1 132       0.151000
     38 HO6          2.9530    -1.5120    -0.0640 ho         1 132       0.459000
     39 H2           5.7260     0.3440    -1.8310 ha         1 132       0.137500
     40 H3           7.5560    -1.3060    -1.8060 ha         1 132       0.141500
     41 H4           7.7970    -2.8670     0.0980 ha         1 132       0.143000
     42 H5           6.2040    -2.7520     1.9880 ha         1 132       0.141500
     43 H6           4.3980    -1.0830     1.9830 ha         1 132       0.137500
@<TRIPOS>BOND
     1     1     2 ar  
     2     1     6 ar  
     3     1     7 1   
     4     2     3 ar  
     5     2    26 1   
     6     3     4 ar  
     7     3    27 1   
     8     4     5 ar  
     9     4    10 1   
    10     5     6 ar  
    11     5    11 1   
    12     6    28 1   
    13     7     8 2   
    14     7     9 1   
    15     8    29 1   
    16     8    30 1   
    17     9    31 1   
    18     9    32 1   
    19    10    12 1   
    20    10    33 1   
    21    11    12 2   
    22    11    34 1   
    23    12    13 1   
    24    13    14 ar  
    25    13    18 ar  
    26    14    15 ar  
    27    14    35 1   
    28    15    16 ar  
    29    15    36 1   
    30    16    17 ar  
    31    16    37 1   
    32    17    18 ar  
    33    17    20 1   
    34    18    19 1   
    35    19    38 1   
    36    20    21 ar  
    37    20    25 ar  
    38    21    22 ar  
    39    21    39 1   
    40    22    23 ar  
    41    22    40 1   
    42    23    24 ar  
    43    23    41 1   
    44    24    25 ar  
    45    24    42 1   
    46    25    43 1   
@<TRIPOS>SUBSTRUCTURE
     1 132         1 TEMP              0 ****  ****    0 ROOT
