@<TRIPOS>MOLECULE
132
   43    46     1     0     0
SMALL
No Charge or Current Charge


@<TRIPOS>ATOM
      1 C1          -4.5710     0.2050     0.1930 ca         1 132      -0.308900
      2 C2          -4.1310    -1.1460     0.1210 ca         1 132       0.142000
      3 C3          -2.7560    -1.4550     0.0830 ca         1 132      -0.088000
      4 C4          -1.8380    -0.3980     0.1170 ca         1 132      -0.011200
      5 C5          -2.2550     0.8960     0.1830 ca         1 132      -0.102800
      6 C6          -3.6100     1.2460     0.2220 ca         1 132       0.004000
      7 C7          -6.0110     0.5370     0.2370 ce         1 132       0.535400
      8 N1          -6.7250     0.1670     1.3420 nv         1 132      -0.564700
      9 N2          -6.4790     1.5120    -0.5990 nv         1 132      -0.548800
     10 N3          -0.4550    -0.4620     0.0900 na         1 132      -0.179700
     11 C9          -1.0810     1.7150     0.2020 cc         1 132      -0.238200
     12 C8           0.0250     0.8670     0.1430 cd         1 132       0.068700
     13 C10          1.4610     1.2590     0.1400 ca         1 132      -0.107800
     14 C11          1.8030     2.6290     0.2050 ca         1 132      -0.048000
     15 C12          3.1420     3.0430     0.1950 ca         1 132      -0.139000
     16 C13          4.1710     2.0980     0.1300 ca         1 132      -0.031000
     17 C14          3.8800     0.7180     0.0760 cp         1 132      -0.113000
     18 C15          2.5190     0.3050     0.0710 ca         1 132       0.172100
     19 O6           2.2520    -1.0320    -0.0370 oh         1 132      -0.573100
     20 C1B          5.0050    -0.2640     0.0210 cp         1 132      -0.076000
     21 C2B          5.9950    -0.1670    -0.9870 ca         1 132      -0.102000
     22 C3B          7.0610    -1.0820    -1.0440 ca         1 132      -0.105000
     23 C4B          7.1590    -2.1060    -0.0870 ca         1 132      -0.092000
     24 C5B          6.1940    -2.2120     0.9280 ca         1 132      -0.105000
     25 C6B          5.1290    -1.2970     0.9840 ca         1 132      -0.102000
     26 Cl2         -5.2890    -2.4720     0.0480 cl         1 132      -0.177000
     27 HC3         -2.4210    -2.4870     0.0240 ha         1 132       0.155000
     28 HC6         -3.9050     2.2930     0.2830 ha         1 132       0.127000
     29 HH11        -7.7220     0.3350     1.3620 hn         1 132       0.376750
     30 HH12        -6.3500    -0.5680     1.9250 hn         1 132       0.376750
     31 HH21        -5.9410     1.7150    -1.4300 hn         1 132       0.376750
     32 HH22        -7.4710     1.7070    -0.6170 hn         1 132       0.376750
     33 HN3          0.1290    -1.2900     0.0390 hn         1 132       0.388000
     34 HC9         -1.0610     2.7990     0.2530 ha         1 132       0.220000
     35 HC'2         1.0350     3.3950     0.2590 ha         1 132       0.119000
     36 HC'3         3.3830     4.1030     0.2420 ha         1 132       0.132000
     37 HC'4         5.2070     2.4320     0.1320 ha         1 132       0.133000
     38 HO6          3.1150    -1.4860    -0.1570 ho         1 132       0.498000
     39 H2           5.9280     0.6200    -1.7340 ha         1 132       0.119500
     40 H3           7.8090    -0.9970    -1.8280 ha         1 132       0.123500
     41 H4           7.9850    -2.8140    -0.1300 ha         1 132       0.125000
     42 H5           6.2750    -2.9990     1.6760 ha         1 132       0.123500
     43 H6           4.4000    -1.3780     1.7880 ha         1 132       0.119500
@<TRIPOS>BOND
     1     1     2 ar  
     2     1     6 ar  
     3     1     7 1   
     4     2     3 ar  
     5     2    26 1   
     6     3     4 ar  
     7     3    27 1   
     8     4     5 ar  
     9     4    10 1   
    10     5     6 ar  
    11     5    11 1   
    12     6    28 1   
    13     7     8 2   
    14     7     9 1   
    15     8    29 1   
    16     8    30 1   
    17     9    31 1   
    18     9    32 1   
    19    10    12 1   
    20    10    33 1   
    21    11    12 2   
    22    11    34 1   
    23    12    13 1   
    24    13    14 ar  
    25    13    18 ar  
    26    14    15 ar  
    27    14    35 1   
    28    15    16 ar  
    29    15    36 1   
    30    16    17 ar  
    31    16    37 1   
    32    17    18 ar  
    33    17    20 1   
    34    18    19 1   
    35    19    38 1   
    36    20    21 ar  
    37    20    25 ar  
    38    21    22 ar  
    39    21    39 1   
    40    22    23 ar  
    41    22    40 1   
    42    23    24 ar  
    43    23    41 1   
    44    24    25 ar  
    45    24    42 1   
    46    25    43 1   
@<TRIPOS>SUBSTRUCTURE
     1 132         1 TEMP              0 ****  ****    0 ROOT
