@<TRIPOS>MOLECULE
133
   44    46     1     0     0
SMALL
No Charge or Current Charge


@<TRIPOS>ATOM
      1 C1           0.6810     0.0350    -4.5980 ca         1 133      -0.210900
      2 C2          -0.6960     0.2690    -4.8640 ca         1 133       0.229000
      3 F2          -1.1440     0.4250    -6.1300 f          1 133      -0.163000
      4 C3          -1.6380     0.3000    -3.8170 ca         1 133      -0.179000
      5 C4          -1.1740     0.1120    -2.5120 ca         1 133      -0.044200
      6 C5           0.1400    -0.0940    -2.2250 ca         1 133       0.042400
      7 C6           1.0980    -0.1330    -3.2500 ca         1 133       0.002000
      8 C7           1.6920     0.0470    -5.6860 ce         1 133       0.668800
      9 N1           2.7110    -0.8310    -5.5860 nv         1 133      -1.084200
     10 N2           1.6660     0.8460    -6.6690 n2         1 133      -0.810100
     11 N3          -1.8810     0.1020    -1.3460 na         1 133      -0.313600
     12 N4           0.3410    -0.2400    -0.8650 nc         1 133      -0.535100
     13 C8          -0.9040    -0.1010    -0.3580 cd         1 133       0.482400
     14 C9          -1.2200    -0.2290     1.0850 ca         1 133      -0.138900
     15 C11         -2.4810    -0.7520     1.4580 ca         1 133      -0.100000
     16 C12         -2.8180    -0.9370     2.8090 ca         1 133      -0.117000
     17 C13         -1.9010    -0.6110     3.8190 ca         1 133      -0.141000
     18 C14         -0.6350    -0.0970     3.4730 ca         1 133       0.048100
     19 C15         -0.2960     0.0880     2.1140 ca         1 133       0.169100
     20 O6           0.9300     0.6250     1.8460 oh         1 133      -0.498100
     21 O5           0.3080     0.2480     4.4280 os         1 133      -0.375100
     22 C10          0.0630     0.0990     5.8400 c3         1 133       0.175600
     23 C20          1.3240     0.5680     6.6080 c3         1 133      -0.065700
     24 C30          1.0620     0.6150     8.1310 c3         1 133      -0.088100
     25 C40          2.5680    -0.2960     6.2850 c3         1 133      -0.088100
     26 HC3         -2.6920     0.4640    -4.0240 ha         1 133       0.137000
     27 HC6          2.1460    -0.2780    -2.9980 ha         1 133       0.142000
     28 HH11         3.1590    -1.0880    -6.4580 hn         1 133       0.464000
     29 HH12         2.5610    -1.5970    -4.9390 hn         1 133       0.464000
     30 HH21         2.5840     0.8170    -7.1250 hn         1 133       0.370400
     31 HN3         -2.8720     0.2330    -1.2030 hn         1 133       0.359000
     32 HC'2        -3.2090    -1.0340     0.7000 ha         1 133       0.114000
     33 HC'3        -3.7940    -1.3400     3.0730 ha         1 133       0.119000
     34 HC'4        -2.1900    -0.7650     4.8550 ha         1 133       0.120000
     35 HO'6         1.3590     0.7610     2.7190 ho         1 133       0.482000
     36 H101        -0.1510    -0.9480     6.0910 h1         1 133       0.037200
     37 H102        -0.7960     0.7120     6.1430 h1         1 133       0.037200
     38 H20          1.5400     1.5950     6.2860 hc         1 133       0.060700
     39 H301         1.9390     1.0000     8.6640 hc         1 133       0.038367
     40 H302         0.2130     1.2720     8.3580 hc         1 133       0.038367
     41 H303         0.8350    -0.3860     8.5190 hc         1 133       0.038367
     42 H401         2.4000    -1.3420     6.5680 hc         1 133       0.038367
     43 H402         2.8030    -0.2630     5.2150 hc         1 133       0.038367
     44 H403         3.4450     0.0710     6.8320 hc         1 133       0.038367
@<TRIPOS>BOND
     1     1     2 ar  
     2     1     7 ar  
     3     1     8 1   
     4     2     3 1   
     5     2     4 ar  
     6     4     5 ar  
     7     4    26 1   
     8     5     6 ar  
     9     5    11 1   
    10     6     7 ar  
    11     6    12 1   
    12     7    27 1   
    13     8     9 1   
    14     8    10 2   
    15     9    28 1   
    16     9    29 1   
    17    10    30 1   
    18    11    13 1   
    19    11    31 1   
    20    12    13 2   
    21    13    14 1   
    22    14    15 ar  
    23    14    19 ar  
    24    15    16 ar  
    25    15    32 1   
    26    16    17 ar  
    27    16    33 1   
    28    17    18 ar  
    29    17    34 1   
    30    18    19 ar  
    31    18    21 1   
    32    19    20 1   
    33    20    35 1   
    34    21    22 1   
    35    22    23 1   
    36    22    36 1   
    37    22    37 1   
    38    23    24 1   
    39    23    25 1   
    40    23    38 1   
    41    24    39 1   
    42    24    40 1   
    43    24    41 1   
    44    25    42 1   
    45    25    43 1   
    46    25    44 1   
@<TRIPOS>SUBSTRUCTURE
     1 133         1 TEMP              0 ****  ****    0 ROOT
