@<TRIPOS>MOLECULE
133
   44    46     1     0     0
SMALL
bcc


@<TRIPOS>ATOM
      1 C1           0.7020     0.0660    -4.5010 ca         1 133      -0.210900
      2 C2          -0.6560     0.3480    -4.7180 ca         1 133       0.193900
      3 F2          -1.0820     0.5440    -5.9740 f          1 133      -0.127900
      4 C3          -1.5990     0.3990    -3.7160 ca         1 133      -0.197000
      5 C4          -1.1290     0.1580    -2.4320 ca         1 133      -0.044200
      6 C5           0.2190    -0.1290    -2.1610 ca         1 133       0.042400
      7 C6           1.1360    -0.1840    -3.2050 ca         1 133      -0.016000
      8 C7           1.6780     0.0490    -5.6270 ce         1 133       0.668800
      9 N1           2.5430    -1.0060    -5.5900 nv         1 133      -0.973800
     10 N2           1.6850     1.0130    -6.4630 n2         1 133      -0.810100
     11 N3          -1.7400     0.1240    -1.2160 na         1 133      -0.263300
     12 N4           0.3990    -0.3240    -0.8150 nc         1 133      -0.535100
     13 C8          -0.7820    -0.1660    -0.2820 cd         1 133       0.482400
     14 C9          -1.1370    -0.3140     1.1290 ca         1 133      -0.138900
     15 C11         -2.3900    -0.8440     1.4700 ca         1 133      -0.118000
     16 C12         -2.7530    -0.9990     2.7900 ca         1 133      -0.135000
     17 C13         -1.8770    -0.6260     3.8080 ca         1 133      -0.159000
     18 C14         -0.6390    -0.1000     3.4880 ca         1 133       0.048100
     19 C15         -0.2570     0.0600     2.1420 ca         1 133       0.169100
     20 O6           0.9370     0.5920     1.8440 oh         1 133      -0.459100
     21 O5           0.2940     0.3090     4.3700 os         1 133      -0.351900
     22 C10          0.0510     0.1590     5.7600 c3         1 133       0.152400
     23 C20          1.2750     0.6260     6.5280 c3         1 133      -0.065700
     24 C30          0.9700     0.5640     8.0210 c3         1 133      -0.088100
     25 C40          2.5110    -0.2010     6.1890 c3         1 133      -0.088100
     26 HC3         -2.6380     0.6040    -3.9350 ha         1 133       0.155000
     27 HC6          2.1780    -0.4020    -3.0090 ha         1 133       0.160000
     28 HH11         3.1470    -1.1510    -6.3840 hn         1 133       0.408800
     29 HH12         2.2500    -1.8520    -5.1320 hn         1 133       0.408800
     30 HH21         2.3950     0.8690    -7.1780 hn         1 133       0.370400
     31 HN3         -2.7060     0.3400    -1.0280 hn         1 133       0.308700
     32 HC'2        -3.0710    -1.1570     0.6900 ha         1 133       0.132000
     33 HC'3        -3.7170    -1.4180     3.0440 ha         1 133       0.137000
     34 HC'4        -2.1760    -0.7530     4.8400 ha         1 133       0.138000
     35 HO'6         1.3950     0.8270     2.6620 ho         1 133       0.443000
     36 H101        -0.1600    -0.8930     5.9920 h1         1 133       0.037200
     37 H102        -0.8280     0.7480     6.0490 h1         1 133       0.037200
     38 H20          1.4640     1.6710     6.2600 hc         1 133       0.060700
     39 H301         1.8220     0.9150     8.6040 hc         1 133       0.038367
     40 H302         0.1110     1.1840     8.2840 hc         1 133       0.038367
     41 H303         0.7540    -0.4600     8.3360 hc         1 133       0.038367
     42 H401         2.3560    -1.2520     6.4440 hc         1 133       0.038367
     43 H402         2.7680    -0.1470     5.1310 hc         1 133       0.038367
     44 H403         3.3750     0.1520     6.7550 hc         1 133       0.038367
@<TRIPOS>BOND
     1     1     2 ar  
     2     1     7 ar  
     3     1     8 1   
     4     2     3 1   
     5     2     4 ar  
     6     4     5 ar  
     7     4    26 1   
     8     5     6 ar  
     9     5    11 1   
    10     6     7 ar  
    11     6    12 1   
    12     7    27 1   
    13     8     9 1   
    14     8    10 2   
    15     9    28 1   
    16     9    29 1   
    17    10    30 1   
    18    11    13 1   
    19    11    31 1   
    20    12    13 2   
    21    13    14 1   
    22    14    15 ar  
    23    14    19 ar  
    24    15    16 ar  
    25    15    32 1   
    26    16    17 ar  
    27    16    33 1   
    28    17    18 ar  
    29    17    34 1   
    30    18    19 ar  
    31    18    21 1   
    32    19    20 1   
    33    20    35 1   
    34    21    22 1   
    35    22    23 1   
    36    22    36 1   
    37    22    37 1   
    38    23    24 1   
    39    23    25 1   
    40    23    38 1   
    41    24    39 1   
    42    24    40 1   
    43    24    41 1   
    44    25    42 1   
    45    25    43 1   
    46    25    44 1   
@<TRIPOS>SUBSTRUCTURE
     1 133         1 TEMP              0 ****  ****    0 ROOT
