@<TRIPOS>MOLECULE
134
   52    55     1     0     0
SMALL
bcc


@<TRIPOS>ATOM
      1 C1          -5.5730     0.0080     0.1540 ca         1 134      -0.217900
      2 C2          -5.0990    -1.3140     0.1420 ca         1 134       0.193900
      3 F2          -5.9750    -2.3160     0.3130 f          1 134      -0.130900
      4 C3          -3.7730    -1.6470     0.0030 ca         1 134      -0.207000
      5 C4          -2.8780    -0.5900    -0.1430 ca         1 134      -0.008200
      6 C5          -3.3000     0.7570    -0.1350 ca         1 134      -0.128800
      7 C6          -4.6560     1.0410     0.0260 ca         1 134      -0.028000
      8 C7          -7.0260     0.3110     0.2720 ce         1 134       0.668800
      9 N1          -7.3100     1.3310     1.1330 nv         1 134      -0.973800
     10 N2          -7.8600    -0.3190    -0.4620 n2         1 134      -0.811100
     11 N3          -1.5310    -0.5970    -0.3050 na         1 134      -0.148400
     12 CN4         -2.1310     1.5530    -0.3080 cc         1 134      -0.169200
     13 C8          -1.0660     0.6940    -0.4130 cd         1 134       0.005700
     14 C9           0.3390     1.0340    -0.6390 ca         1 134      -0.044800
     15 C10          0.6470     2.2160    -1.3280 ca         1 134      -0.111000
     16 C11          1.9550     2.5890    -1.5450 ca         1 134      -0.128000
     17 C12          3.0040     1.7940    -1.0850 ca         1 134      -0.170000
     18 C13          2.7230     0.6240    -0.4020 ca         1 134       0.067100
     19 C14          1.3880     0.2420    -0.1780 ca         1 134       0.118100
     20 O6           1.1240    -0.8940     0.4990 oh         1 134      -0.509100
     21 O5           3.6190    -0.2480     0.1010 os         1 134      -0.361900
     22 C1B          5.7030    -1.3940     0.1190 c6         1 134      -0.061700
     23 C2B          7.2200    -1.2090     0.0280 c6         1 134      -0.073400
     24 C3B          7.7520    -0.1850     1.0230 c6         1 134      -0.077400
     25 C4B          7.0390     1.1510     0.8570 c6         1 134      -0.073400
     26 C5B          5.5280     0.9770     0.9730 c6         1 134      -0.105400
     27 C6B          5.0240    -0.0370    -0.0480 c6         1 134       0.168100
     28 CM           5.2200    -2.4130    -0.9050 c3         1 134      -0.085100
     29 HC3         -3.4550    -2.6820     0.0140 ha         1 134       0.153000
     30 HC6         -5.0000     2.0680     0.0290 ha         1 134       0.144000
     31 HH11        -6.6770     1.5040     1.8960 hn         1 134       0.407300
     32 HH12        -8.2780     1.5110     1.3480 hn         1 134       0.407300
     33 HH21        -8.8120    -0.0170    -0.2710 hn         1 134       0.367400
     34 HN3         -0.9590    -1.4230    -0.3620 hn         1 134       0.314700
     35 HN4         -2.0800     2.6300    -0.3340 ha         1 134       0.155000
     36 HC'2        -0.1600     2.8310    -1.7050 ha         1 134       0.143000
     37 HC'3         2.1770     3.5000    -2.0830 ha         1 134       0.136000
     38 HC'4         4.0230     2.1040    -1.2710 ha         1 134       0.139000
     39 HO'6         1.9530    -1.3330     0.7290 ho         1 134       0.450000
     40 H1           5.4650    -1.7620     1.1260 hc         1 134       0.059700
     41 H2'1         7.7060    -2.1760     0.1830 hc         1 134       0.044200
     42 H2'2         7.4780    -0.8930    -0.9900 hc         1 134       0.044200
     43 H3'1         7.6050    -0.5530     2.0440 hc         1 134       0.044200
     44 H3'2         8.8290    -0.0600     0.8880 hc         1 134       0.044200
     45 H4'1         7.3850     1.8710     1.6020 hc         1 134       0.043200
     46 H4'2         7.2850     1.5750    -0.1220 hc         1 134       0.043200
     47 H5'1         5.2750     0.6190     1.9760 hc         1 134       0.054700
     48 H5'2         5.0280     1.9390     0.8430 hc         1 134       0.054700
     49 H6           5.2280     0.3250    -1.0660 h1         1 134       0.046700
     50 HM1          5.7420    -3.3620    -0.7700 hc         1 134       0.037700
     51 HM2          4.1520    -2.6110    -0.8240 hc         1 134       0.037700
     52 HM3          5.4230    -2.0700    -1.9230 hc         1 134       0.037700
@<TRIPOS>BOND
     1     1     2 ar  
     2     1     7 ar  
     3     1     8 1   
     4     2     3 1   
     5     2     4 ar  
     6     4     5 ar  
     7     4    29 1   
     8     5     6 ar  
     9     5    11 1   
    10     6     7 ar  
    11     6    12 1   
    12     7    30 1   
    13     8     9 1   
    14     8    10 2   
    15     9    31 1   
    16     9    32 1   
    17    10    33 1   
    18    11    13 1   
    19    11    34 1   
    20    12    13 2   
    21    12    35 1   
    22    13    14 1   
    23    14    15 ar  
    24    14    19 ar  
    25    15    16 ar  
    26    15    36 1   
    27    16    17 ar  
    28    16    37 1   
    29    17    18 ar  
    30    17    38 1   
    31    18    19 ar  
    32    18    21 1   
    33    19    20 1   
    34    20    39 1   
    35    21    27 1   
    36    22    23 1   
    37    22    27 1   
    38    22    28 1   
    39    22    40 1   
    40    23    24 1   
    41    23    41 1   
    42    23    42 1   
    43    24    25 1   
    44    24    43 1   
    45    24    44 1   
    46    25    26 1   
    47    25    45 1   
    48    25    46 1   
    49    26    27 1   
    50    26    47 1   
    51    26    48 1   
    52    27    49 1   
    53    28    50 1   
    54    28    51 1   
    55    28    52 1   
@<TRIPOS>SUBSTRUCTURE
     1 134         1 TEMP              0 ****  ****    0 ROOT
