@<TRIPOS>MOLECULE
134
   52    55     1     0     0
SMALL
No Charge or Current Charge


@<TRIPOS>ATOM
      1 C1          -5.7140     0.0350     0.2430 ca         1 134      -0.217900
      2 C2          -5.2380    -1.2310     0.6860 ca         1 134       0.229000
      3 F2          -6.0930    -2.1790     1.1320 f          1 134      -0.166000
      4 C3          -3.8580    -1.5200     0.7140 ca         1 134      -0.189000
      5 C4          -2.9660    -0.5360     0.2790 ca         1 134      -0.008200
      6 C5          -3.4120     0.6710    -0.1630 ca         1 134      -0.128800
      7 C6          -4.7730     0.9990    -0.2050 ca         1 134      -0.010000
      8 C7          -7.1680     0.3300     0.1650 ce         1 134       0.668800
      9 N1          -7.5550     1.5870     0.4650 nv         1 134      -1.084200
     10 N2          -8.0480    -0.5120    -0.1850 n2         1 134      -0.811100
     11 N3          -1.5860    -0.6000     0.2130 na         1 134      -0.198700
     12 CN4         -2.2610     1.4310    -0.5420 cc         1 134      -0.219200
     13 C8          -1.1380     0.6380    -0.3050 cd         1 134       0.005700
     14 C9           0.2860     0.9970    -0.5440 ca         1 134      -0.044800
     15 C10          0.6050     2.2710    -1.0680 ca         1 134      -0.093000
     16 C11          1.9360     2.6450    -1.3110 ca         1 134      -0.110000
     17 C12          2.9850     1.7580    -1.0330 ca         1 134      -0.152000
     18 C13          2.7010     0.4830    -0.5010 ca         1 134       0.067100
     19 C14          1.3610     0.1040    -0.2660 ca         1 134       0.118100
     20 O6           1.1550    -1.1520     0.2410 oh         1 134      -0.548100
     21 O5           3.6870    -0.4520    -0.2090 os         1 134      -0.385100
     22 C1B          5.9430    -1.4260    -0.1690 c6         1 134      -0.061700
     23 C2B          7.4600    -1.0970    -0.0810 c6         1 134      -0.073400
     24 C3B          7.7800    -0.2060     1.1440 c6         1 134      -0.077400
     25 C4B          6.9360     1.0900     1.1250 c6         1 134      -0.073400
     26 C5B          5.4250     0.7660     1.0460 c6         1 134      -0.105400
     27 C6B          5.0950    -0.1180    -0.1910 c6         1 134       0.191300
     28 CM           5.6500    -2.3350    -1.3960 c3         1 134      -0.085100
     29 HC3         -3.5020    -2.4850     1.0660 ha         1 134       0.135000
     30 HC6         -5.0890     1.9670    -0.5870 ha         1 134       0.126000
     31 HH11        -6.8610     2.1360     0.9610 hn         1 134       0.462500
     32 HH12        -8.5070     1.6980     0.7940 hn         1 134       0.462500
     33 HH21        -8.9150    -0.0010    -0.3810 hn         1 134       0.367400
     34 HN3         -0.9890    -1.3760     0.4770 hn         1 134       0.365000
     35 HN4         -2.2640     2.4420    -0.9400 ha         1 134       0.205000
     36 HC'2        -0.1760     2.9890    -1.2980 ha         1 134       0.125000
     37 HC'3         2.1540     3.6300    -1.7190 ha         1 134       0.118000
     38 HC'4         4.0010     2.0790    -1.2410 ha         1 134       0.121000
     39 HO'6         2.0520    -1.5480     0.3340 ho         1 134       0.489000
     40 H1           5.6630    -2.0080     0.7210 hc         1 134       0.059700
     41 H2'1         8.0440    -2.0260    -0.0180 hc         1 134       0.044200
     42 H2'2         7.7860    -0.5880    -0.9990 hc         1 134       0.044200
     43 H3'1         7.5840    -0.7640     2.0700 hc         1 134       0.044200
     44 H3'2         8.8500     0.0460     1.1530 hc         1 134       0.044200
     45 H4'1         7.1440     1.6830     2.0260 hc         1 134       0.043200
     46 H4'2         7.2280     1.7120     0.2670 hc         1 134       0.043200
     47 H5'1         5.1110     0.2470     1.9620 hc         1 134       0.054700
     48 H5'2         4.8560     1.7040     1.0120 hc         1 134       0.054700
     49 H6           5.3480     0.4220    -1.1140 h1         1 134       0.046700
     50 HM1          6.2530    -3.2500    -1.3640 hc         1 134       0.037700
     51 HM2          4.5970    -2.6400    -1.4280 hc         1 134       0.037700
     52 HM3          5.8760    -1.8190    -2.3370 hc         1 134       0.037700
@<TRIPOS>BOND
     1     1     2 ar  
     2     1     7 ar  
     3     1     8 1   
     4     2     3 1   
     5     2     4 ar  
     6     4     5 ar  
     7     4    29 1   
     8     5     6 ar  
     9     5    11 1   
    10     6     7 ar  
    11     6    12 1   
    12     7    30 1   
    13     8     9 1   
    14     8    10 2   
    15     9    31 1   
    16     9    32 1   
    17    10    33 1   
    18    11    13 1   
    19    11    34 1   
    20    12    13 2   
    21    12    35 1   
    22    13    14 1   
    23    14    15 ar  
    24    14    19 ar  
    25    15    16 ar  
    26    15    36 1   
    27    16    17 ar  
    28    16    37 1   
    29    17    18 ar  
    30    17    38 1   
    31    18    19 ar  
    32    18    21 1   
    33    19    20 1   
    34    20    39 1   
    35    21    27 1   
    36    22    23 1   
    37    22    27 1   
    38    22    28 1   
    39    22    40 1   
    40    23    24 1   
    41    23    41 1   
    42    23    42 1   
    43    24    25 1   
    44    24    43 1   
    45    24    44 1   
    46    25    26 1   
    47    25    45 1   
    48    25    46 1   
    49    26    27 1   
    50    26    47 1   
    51    26    48 1   
    52    27    49 1   
    53    28    50 1   
    54    28    51 1   
    55    28    52 1   
@<TRIPOS>SUBSTRUCTURE
     1 134         1 TEMP              0 ****  ****    0 ROOT
