@<TRIPOS>MOLECULE
135
   32    33     1     0     0
SMALL
abcg2


@<TRIPOS>ATOM
      1 C1          -0.0430    -0.0100     3.7150 ca         1 135      -0.219900
      2 C2           0.9940     0.4750     2.9240 ca         1 135      -0.062000
      3 C3           0.9000     0.5280     1.5430 ca         1 135      -0.148500
      4 C4          -0.2600     0.0720     0.9140 ca         1 135      -0.011000
      5 C5          -1.3100    -0.4070     1.7010 ca         1 135      -0.148500
      6 C6          -1.2050    -0.4420     3.0780 ca         1 135      -0.062000
      7 C7           0.1110    -0.0810     5.1930 ce         1 135       0.663800
      8 N1          -1.0430     0.0800     5.9000 nv         1 135      -1.032200
      9 N2           1.2130    -0.3190     5.7970 n2         1 135      -0.843100
     10 N3          -0.4720     0.0720    -0.4680 ns         1 135      -0.124000
     11 C8           0.4210     0.2500    -1.4650 c          1 135       0.639700
     12 O8           1.6170     0.4590    -1.2420 o          1 135      -0.630100
     13 C9          -0.0840     0.1670    -2.8540 ca         1 135      -0.281600
     14 C10         -1.4460     0.1140    -3.1780 ca         1 135      -0.037000
     15 C11         -1.8770     0.0240    -4.4840 ca         1 135      -0.169000
     16 C12         -0.9350    -0.0180    -5.5100 ca         1 135      -0.036000
     17 C13          0.4140     0.0450    -5.2270 ca         1 135      -0.173000
     18 C14          0.8580     0.1510    -3.9060 ca         1 135       0.227100
     19 O14          2.1710     0.2280    -3.7030 oh         1 135      -0.545100
     20 H2           1.9000     0.8450     3.3880 ha         1 135       0.123500
     21 H3           1.7260     0.9280     0.9800 ha         1 135       0.132500
     22 H5          -2.2170    -0.7670     1.2300 ha         1 135       0.132500
     23 H6          -2.0340    -0.8350     3.6520 ha         1 135       0.123500
     24 HH11        -0.9420     0.1530     6.9000 hn         1 135       0.467500
     25 HH12        -1.7600     0.6730     5.5150 hn         1 135       0.467500
     26 HH21         1.9500    -0.5220     5.1320 hn         1 135       0.389400
     27 HN3         -1.4050    -0.1980    -0.7350 hn         1 135       0.158000
     28 H10         -2.2030     0.1610    -2.4050 ha         1 135       0.102000
     29 H11         -2.9350    -0.0100    -4.7040 ha         1 135       0.121000
     30 H12         -1.2580    -0.0940    -6.5400 ha         1 135       0.119000
     31 H13          1.1470     0.0220    -6.0230 ha         1 135       0.136000
     32 H14          2.3080     0.3520    -2.7330 ho         1 135       0.521000
@<TRIPOS>BOND
     1     1     2 ar  
     2     1     6 ar  
     3     1     7 1   
     4     2     3 ar  
     5     2    20 1   
     6     3     4 ar  
     7     3    21 1   
     8     4     5 ar  
     9     4    10 1   
    10     5     6 ar  
    11     5    22 1   
    12     6    23 1   
    13     7     8 1   
    14     7     9 2   
    15     8    24 1   
    16     8    25 1   
    17     9    26 1   
    18    10    11 1   
    19    10    27 1   
    20    11    12 2   
    21    11    13 1   
    22    13    14 ar  
    23    13    18 ar  
    24    14    15 ar  
    25    14    28 1   
    26    15    16 ar  
    27    15    29 1   
    28    16    17 ar  
    29    16    30 1   
    30    17    18 ar  
    31    17    31 1   
    32    18    19 1   
    33    19    32 1   
@<TRIPOS>SUBSTRUCTURE
     1 135         1 TEMP              0 ****  ****    0 ROOT
