@<TRIPOS>MOLECULE
135
   32    33     1     0     0
SMALL
No Charge or Current Charge


@<TRIPOS>ATOM
      1 C1          -0.0850    -0.0430     3.7880 ca         1 135      -0.219900
      2 C2           1.0790     0.1720     3.0160 ca         1 135      -0.062000
      3 C3           1.0180     0.2000     1.6120 ca         1 135      -0.148500
      4 C4          -0.2070    -0.0010     0.9420 ca         1 135      -0.011000
      5 C5          -1.3610    -0.2410     1.7070 ca         1 135      -0.148500
      6 C6          -1.3050    -0.2680     3.1110 ca         1 135      -0.062000
      7 C7          -0.0150    -0.1140     5.2780 ce         1 135       0.663800
      8 N1          -1.0870     0.2960     5.9760 nv         1 135      -1.032200
      9 N2           1.0460    -0.3870     5.9160 n2         1 135      -0.843100
     10 N3          -0.3460     0.0090    -0.4750 ns         1 135      -0.124000
     11 C8           0.5470     0.2740    -1.5060 c          1 135       0.639700
     12 O8           1.7200     0.5880    -1.3210 o          1 135      -0.630100
     13 C9          -0.0030     0.1600    -2.9170 ca         1 135      -0.281600
     14 C10         -1.3540    -0.2030    -3.1540 ca         1 135      -0.037000
     15 C11         -1.8500    -0.3040    -4.4640 ca         1 135      -0.169000
     16 C12         -1.0150    -0.0480    -5.5610 ca         1 135      -0.036000
     17 C13          0.3220     0.3110    -5.3420 ca         1 135      -0.173000
     18 C14          0.8250     0.4140    -4.0370 ca         1 135       0.227100
     19 O14          2.1290     0.7660    -3.8760 oh         1 135      -0.545100
     20 H2           2.0400     0.3380     3.4990 ha         1 135       0.123500
     21 H3           1.9400     0.3750     1.0660 ha         1 135       0.132500
     22 H5          -2.3150    -0.4130     1.2130 ha         1 135       0.132500
     23 H6          -2.2170    -0.4750     3.6690 ha         1 135       0.123500
     24 HH11        -0.8750     0.5450     6.9340 hn         1 135       0.467500
     25 HH12        -1.7130     0.9220     5.4840 hn         1 135       0.467500
     26 HH21         1.7390    -0.7240     5.2350 hn         1 135       0.389400
     27 HN3         -1.2770    -0.2240    -0.7890 hn         1 135       0.158000
     28 H10         -2.0410    -0.4110    -2.3360 ha         1 135       0.102000
     29 H11         -2.8880    -0.5830    -4.6300 ha         1 135       0.121000
     30 H12         -1.4020    -0.1280    -6.5750 ha         1 135       0.119000
     31 H13          0.9730     0.5100    -6.1880 ha         1 135       0.136000
     32 H14          2.2790     0.7820    -2.8930 ho         1 135       0.521000
@<TRIPOS>BOND
     1     1     2 ar  
     2     1     6 ar  
     3     1     7 1   
     4     2     3 ar  
     5     2    20 1   
     6     3     4 ar  
     7     3    21 1   
     8     4     5 ar  
     9     4    10 1   
    10     5     6 ar  
    11     5    22 1   
    12     6    23 1   
    13     7     8 1   
    14     7     9 2   
    15     8    24 1   
    16     8    25 1   
    17     9    26 1   
    18    10    11 1   
    19    10    27 1   
    20    11    12 2   
    21    11    13 1   
    22    13    14 ar  
    23    13    18 ar  
    24    14    15 ar  
    25    14    28 1   
    26    15    16 ar  
    27    15    29 1   
    28    16    17 ar  
    29    16    30 1   
    30    17    18 ar  
    31    17    31 1   
    32    18    19 1   
    33    19    32 1   
@<TRIPOS>SUBSTRUCTURE
     1 135         1 TEMP              0 ****  ****    0 ROOT
