@<TRIPOS>MOLECULE
136
   35    36     1     0     0
SMALL
bcc


@<TRIPOS>ATOM
      1 C1           0.4780     0.2000    -5.5830 ca         1 136      -0.161900
      2 C2          -0.5120    -0.3000    -4.7490 ca         1 136       0.068400
      3 CL2         -1.9690    -0.9510    -5.4320 cl         1 136      -0.109400
      4 C3          -0.3840    -0.3410    -3.3690 ca         1 136      -0.155000
      5 C4           0.7860     0.1400    -2.7840 ca         1 136       0.096600
      6 C5           1.8020     0.6350    -3.6060 ca         1 136      -0.196000
      7 C6           1.6470     0.6530    -4.9760 ca         1 136      -0.050000
      8 C7           0.3570     0.2460    -7.0690 ce         1 136       0.680800
      9 N1          -0.5900     1.0980    -7.5370 nv         1 136      -0.980800
     10 N2           1.1810    -0.4450    -7.7560 n2         1 136      -0.827100
     11 N3           1.0220     0.1570    -1.4110 ns         1 136      -0.472100
     12 C8           0.1990    -0.2100    -0.3930 c          1 136       0.701700
     13 O8          -0.9420    -0.6000    -0.5370 o          1 136      -0.546100
     14 C9           0.8510    -0.1210     0.9510 ca         1 136      -0.198600
     15 C10          2.0480    -0.7840     1.1770 ca         1 136      -0.056000
     16 C11          2.6590    -0.7880     2.4280 ca         1 136      -0.120300
     17 C21          3.9490    -1.5200     2.6560 c3         1 136      -0.042800
     18 C12          2.0350    -0.0890     3.4500 ca         1 136      -0.038000
     19 C13          0.8420     0.5900     3.2330 ca         1 136      -0.048100
     20 I13         -0.0180     1.6440     4.8400 i          1 136      -0.165900
     21 C14          0.2220     0.5870     1.9850 ca         1 136       0.220100
     22 O14         -0.9130     1.2280     1.6870 oh         1 136      -0.468100
     23 H3          -1.1840    -0.7470    -2.7740 ha         1 136       0.184000
     24 H5           2.7200     1.0070    -3.1680 ha         1 136       0.134000
     25 H6           2.4460     1.0390    -5.5940 ha         1 136       0.149000
     26 HH11        -0.8730     1.0390    -8.5020 hn         1 136       0.418300
     27 HH12        -1.2780     1.4810    -6.9120 hn         1 136       0.418300
     28 HH21         1.0300    -0.3060    -8.7530 hn         1 136       0.370400
     29 HN3          1.9190     0.5320    -1.1400 hn         1 136       0.322500
     30 H10          2.5100    -1.3300     0.3630 ha         1 136       0.142000
     31 H211         3.8680    -2.5670     2.3620 hc         1 136       0.046367
     32 H212         4.7600    -1.0820     2.0710 hc         1 136       0.046367
     33 H213         4.2420    -1.4900     3.7040 hc         1 136       0.046367
     34 H12          2.4870    -0.0740     4.4340 ha         1 136       0.147000
     35 H14         -1.2600     1.7280     2.4360 ho         1 136       0.444000
@<TRIPOS>BOND
     1     1     2 ar  
     2     1     7 ar  
     3     1     8 1   
     4     2     3 1   
     5     2     4 ar  
     6     4     5 ar  
     7     4    23 1   
     8     5     6 ar  
     9     5    11 1   
    10     6     7 ar  
    11     6    24 1   
    12     7    25 1   
    13     8     9 1   
    14     8    10 2   
    15     9    26 1   
    16     9    27 1   
    17    10    28 1   
    18    11    12 1   
    19    11    29 1   
    20    12    13 2   
    21    12    14 1   
    22    14    15 ar  
    23    14    21 ar  
    24    15    16 ar  
    25    15    30 1   
    26    16    17 1   
    27    16    18 ar  
    28    17    31 1   
    29    17    32 1   
    30    17    33 1   
    31    18    19 ar  
    32    18    34 1   
    33    19    20 1   
    34    19    21 ar  
    35    21    22 1   
    36    22    35 1   
@<TRIPOS>SUBSTRUCTURE
     1 136         1 TEMP              0 ****  ****    0 ROOT
