@<TRIPOS>MOLECULE
136
   35    36     1     0     0
SMALL
No Charge or Current Charge


@<TRIPOS>ATOM
      1 C1           0.4820     0.1170    -5.6600 ca         1 136      -0.161900
      2 C2          -0.6490    -0.0710    -4.8320 ca         1 136       0.160000
      3 Cl2         -2.2590    -0.3440    -5.5020 cl         1 136      -0.201000
      4 C3          -0.5180    -0.0790    -3.4330 ca         1 136      -0.137000
      5 C4           0.7450     0.0850    -2.8250 ca         1 136       0.004000
      6 C5           1.8720     0.2320    -3.6480 ca         1 136      -0.178000
      7 C6           1.7470     0.2400    -5.0480 ca         1 136      -0.032000
      8 C7           0.3810     0.0880    -7.1470 ce         1 136       0.680800
      9 N1          -0.4570     0.9720    -7.7240 nv         1 136      -1.091200
     10 N2           1.2970    -0.3950    -7.8780 n2         1 136      -0.827100
     11 N3           0.9550     0.0830    -1.4180 ns         1 136      -0.146000
     12 C8           0.0800     0.0820    -0.3360 c          1 136       0.634700
     13 O8          -1.1370     0.0950    -0.4730 o          1 136      -0.546100
     14 C9           0.7520     0.0110     1.0260 ca         1 136      -0.198600
     15 C10          2.0600    -0.5270     1.1440 ca         1 136      -0.038000
     16 C11          2.7050    -0.6150     2.3910 ca         1 136      -0.120300
     17 C21          4.1040    -1.2060     2.4870 c3         1 136      -0.042800
     18 C12          2.0450    -0.1670     3.5470 ca         1 136      -0.020000
     19 C13          0.7540     0.3690     3.4530 ca         1 136       0.089000
     20 I13         -0.2300     1.0690     5.2630 i          1 136      -0.303000
     21 C14          0.1030     0.4630     2.2040 ca         1 136       0.220100
     22 O14         -1.1420     1.0290     2.1610 oh         1 136      -0.507100
     23 H3          -1.4140    -0.2320    -2.8420 ha         1 136       0.166000
     24 H5           2.8600     0.3430    -3.2040 ha         1 136       0.116000
     25 H6           2.6410     0.3560    -5.6580 ha         1 136       0.131000
     26 HH11        -0.7570     0.7310    -8.6610 hn         1 136       0.473500
     27 HH12        -1.2000     1.3020    -7.1180 hn         1 136       0.473500
     28 HH21         1.2540     0.0860    -8.7830 hn         1 136       0.370400
     29 HN3          1.9310     0.0970    -1.1560 hn         1 136       0.156000
     30 H10          2.5880    -0.9070     0.2710 ha         1 136       0.124000
     31 H211         4.0640    -2.3020     2.5170 hc         1 136       0.046367
     32 H212         4.7190    -0.9170     1.6270 hc         1 136       0.046367
     33 H213         4.6250    -0.8670     3.3910 hc         1 136       0.046367
     34 H12          2.5300    -0.2320     4.5180 ha         1 136       0.129000
     35 H14         -1.3950     1.2700     3.0790 ho         1 136       0.483000
@<TRIPOS>BOND
     1     1     2 ar  
     2     1     7 ar  
     3     1     8 1   
     4     2     3 1   
     5     2     4 ar  
     6     4     5 ar  
     7     4    23 1   
     8     5     6 ar  
     9     5    11 1   
    10     6     7 ar  
    11     6    24 1   
    12     7    25 1   
    13     8     9 1   
    14     8    10 2   
    15     9    26 1   
    16     9    27 1   
    17    10    28 1   
    18    11    12 1   
    19    11    29 1   
    20    12    13 2   
    21    12    14 1   
    22    14    15 ar  
    23    14    21 ar  
    24    15    16 ar  
    25    15    30 1   
    26    16    17 1   
    27    16    18 ar  
    28    17    31 1   
    29    17    32 1   
    30    17    33 1   
    31    18    19 ar  
    32    18    34 1   
    33    19    20 1   
    34    19    21 ar  
    35    21    22 1   
    36    22    35 1   
@<TRIPOS>SUBSTRUCTURE
     1 136         1 TEMP              0 ****  ****    0 ROOT
