@<TRIPOS>MOLECULE
138
   85    88     1     0     0
SMALL
abcg2


@<TRIPOS>ATOM
      1 N1          -5.7020     0.4920     4.7360 nb         1 138      -0.312000
      2 C2          -5.3080     0.4350     5.9880 ca         1 138       0.407900
      3 NA2         -6.2420     0.3620     6.9570 nv         1 138      -1.073900
      4 N3          -4.0240     0.4570     6.4250 nb         1 138      -0.281000
      5 C4          -3.0880     0.5940     5.5370 ca         1 138       0.422300
      6 O4          -1.8540     0.5600     6.0200 oh         1 138      -0.575300
      7 C4A         -3.3680     0.7470     4.1430 ca         1 138      -0.246000
      8 C8A         -4.7350     0.6430     3.8050 ca         1 138       0.092000
      9 C8          -5.0800     0.7020     2.4380 ca         1 138      -0.144000
     10 C7          -4.1090     0.8490     1.4820 ca         1 138      -0.045000
     11 C6          -2.7440     0.9810     1.8150 ca         1 138      -0.095300
     12 C9          -1.7080     1.0780     0.7350 c3         1 138      -0.011100
     13 C10         -1.0770    -0.2950     0.4040 c3         1 138       0.237300
     14 OA2         -2.1480    -1.1440     0.0580 oh         1 138      -0.658000
     15 CA1         -0.1080    -0.1820    -0.7820 c3         1 138       0.132800
     16 C5          -2.3990     0.9450     3.1450 ca         1 138      -0.046000
     17 C13         -0.9290    -1.7340     2.4900 ca         1 138      -0.121500
     18 C12         -0.3390    -2.0690     3.6990 ca         1 138      -0.090500
     19 C11          0.8370    -1.4520     4.1130 ca         1 138      -0.121600
     20 C17          1.4330    -1.8260     5.4320 c          1 138       0.596700
     21 O17          1.2480    -2.9370     5.9140 o          1 138      -0.631100
     22 C16          1.4340    -0.5250     3.2610 ca         1 138      -0.090500
     23 C15          0.8500    -0.2020     2.0490 ca         1 138      -0.121500
     24 C14         -0.3510    -0.7870     1.6480 ca         1 138      -0.130300
     25 N            2.1920    -0.8860     6.0110 ns         1 138      -0.422900
     26 CA           2.7400    -1.0440     7.3380 c3         1 138      -0.051300
     27 C            1.6540    -0.9410     8.4400 c          1 138       0.716000
     28 O            0.5420    -0.4960     8.1120 o          1 138      -0.741500
     29 OT           2.0240    -1.3000     9.5770 o          1 138      -0.741500
     30 CB           3.8400    -0.0040     7.5650 c3         1 138      -0.054400
     31 CG           4.9940    -0.1130     6.5810 c3         1 138      -0.201400
     32 CD           6.1340     0.9010     6.7830 c          1 138       0.712000
     33 OE2          5.9280     1.8650     7.5480 o          1 138      -0.762500
     34 OE1          7.1820     0.6850     6.1380 o          1 138      -0.762500
     35 C24          0.6450     2.4110    -8.7500 c5         1 138       0.137300
     36 O24         -0.4920     3.1300    -9.1610 oh         1 138      -0.722000
     37 C23          0.9540     2.6460    -7.2770 c5         1 138       0.076300
     38 O23          0.8740     4.0000    -6.9490 oh         1 138      -0.736000
     39 C22         -0.0930     1.7580    -6.6000 c5         1 138       0.302700
     40 O26         -0.2550     0.6510    -7.4630 os         1 138      -0.425000
     41 C25          0.3060     0.9240    -8.7500 c5         1 138       0.147300
     42 C27          1.5160     0.0450    -9.0110 c3         1 138       0.242600
     43 O28          1.1380    -1.2930    -8.9470 os         1 138      -0.562400
     44 N21          0.3190     1.3420    -5.2990 ns         1 138      -0.509900
     45 C20         -0.5390     1.0110    -4.3040 c          1 138       0.615100
     46 O20         -1.7460     1.1470    -4.3850 o          1 138      -0.601100
     47 C19          0.1420     0.4330    -3.0790 c3         1 138       0.068800
     48 N18         -0.7600     0.3420    -1.9610 n7         1 138      -0.856400
     49 P29          2.2690    -2.4440    -9.5120 p5         1 138       1.272900
     50 O30          1.5190    -3.7370    -9.2220 o          1 138      -0.926167
     51 O31          2.4500    -2.1210   -10.9910 o          1 138      -0.926167
     52 O32          3.5170    -2.2100    -8.6670 o          1 138      -0.926167
     53 HA21        -5.9570     0.1110     7.8880 hn         1 138       0.483500
     54 HA22        -7.1910     0.1590     6.6980 hn         1 138       0.483500
     55 HO4         -1.1810     0.5600     5.3310 ho         1 138       0.497000
     56 H8          -6.1230     0.6210     2.1620 ha         1 138       0.114000
     57 H7          -4.3960     0.8780     0.4380 ha         1 138       0.117000
     58 H91         -2.1480     1.4830    -0.1780 hc         1 138       0.065200
     59 H92         -0.9040     1.7580     1.0260 hc         1 138       0.065200
     60 HA2         -1.7960    -2.0070    -0.1890 ho         1 138       0.444000
     61 HA11         0.7140     0.4910    -0.5290 h1         1 138       0.039200
     62 HA12         0.3490    -1.1730    -0.9460 h1         1 138       0.039200
     63 H5          -1.3560     1.0830     3.4080 ha         1 138       0.119000
     64 H13         -1.8700    -2.1940     2.2230 ha         1 138       0.110500
     65 H12         -0.8160    -2.8000     4.3380 ha         1 138       0.135000
     66 H16          2.3730    -0.0540     3.5260 ha         1 138       0.135000
     67 H15          1.3390     0.5370     1.4290 ha         1 138       0.110500
     68 H            2.1050     0.0590     5.6720 hn         1 138       0.295500
     69 HA           3.1920    -2.0390     7.3980 h1         1 138       0.055700
     70 HB1          3.4040     0.9990     7.5230 hc         1 138       0.048200
     71 HB2          4.2080    -0.1330     8.5830 hc         1 138       0.048200
     72 HG1          5.4130    -1.1250     6.6140 hc         1 138       0.011700
     73 HG2          4.6280     0.0060     5.5550 hc         1 138       0.011700
     74 HO5         -0.3430     4.0640    -8.9800 ho         1 138       0.491000
     75 HO3          1.0900     4.1120    -6.0170 ho         1 138       0.505000
     76 H22         -1.0370     2.3020    -6.4970 h2         1 138       0.072700
     77 H25         -0.4520     0.7130    -9.5130 h1         1 138       0.082700
     78 H271         1.9090     0.3120   -10.0030 h1         1 138      -0.004800
     79 H272         2.3120     0.2790    -8.2880 h1         1 138      -0.004800
     80 H21          1.2950     1.1150    -5.1700 hn         1 138       0.312500
     81 H191         0.9900     1.0700    -2.8080 h1         1 138       0.052700
     82 H192         0.5820    -0.5350    -3.3750 h1         1 138       0.052700
     83 H18         -1.5460    -0.2450    -2.2080 hn         1 138       0.436000
     84 H24          1.5110     2.6310    -9.3880 h1         1 138       0.055700
     85 H23          1.9540     2.2400    -7.0660 h1         1 138       0.062700
@<TRIPOS>BOND
     1     1     2 ar  
     2     1     8 ar  
     3     2     3 1   
     4     2     4 ar  
     5     3    53 1   
     6     3    54 1   
     7     4     5 ar  
     8     5     6 1   
     9     5     7 ar  
    10     6    55 1   
    11     7     8 ar  
    12     7    16 ar  
    13     8     9 ar  
    14     9    10 ar  
    15     9    56 1   
    16    10    11 ar  
    17    10    57 1   
    18    11    12 1   
    19    11    16 ar  
    20    12    13 1   
    21    12    58 1   
    22    12    59 1   
    23    13    14 1   
    24    13    15 1   
    25    13    24 1   
    26    14    60 1   
    27    15    48 1   
    28    15    61 1   
    29    15    62 1   
    30    16    63 1   
    31    17    18 ar  
    32    17    24 ar  
    33    17    64 1   
    34    18    19 ar  
    35    18    65 1   
    36    19    20 1   
    37    19    22 ar  
    38    20    21 2   
    39    20    25 1   
    40    22    23 ar  
    41    22    66 1   
    42    23    24 ar  
    43    23    67 1   
    44    25    26 1   
    45    25    68 1   
    46    26    27 1   
    47    26    30 1   
    48    26    69 1   
    49    27    28 1   
    50    27    29 1   
    51    30    31 1   
    52    30    70 1   
    53    30    71 1   
    54    31    32 1   
    55    31    72 1   
    56    31    73 1   
    57    32    33 1   
    58    32    34 1   
    59    35    36 1   
    60    35    37 1   
    61    35    41 1   
    62    35    84 1   
    63    36    74 1   
    64    37    38 1   
    65    37    39 1   
    66    37    85 1   
    67    38    75 1   
    68    39    40 1   
    69    39    44 1   
    70    39    76 1   
    71    40    41 1   
    72    41    42 1   
    73    41    77 1   
    74    42    43 1   
    75    42    78 1   
    76    42    79 1   
    77    43    49 1   
    78    44    45 1   
    79    44    80 1   
    80    45    46 2   
    81    45    47 1   
    82    47    48 1   
    83    47    81 1   
    84    47    82 1   
    85    48    83 1   
    86    49    50 1   
    87    49    51 1   
    88    49    52 1   
@<TRIPOS>SUBSTRUCTURE
     1 138         1 TEMP              0 ****  ****    0 ROOT
