@<TRIPOS>MOLECULE
138
   85    88     1     0     0
SMALL
No Charge or Current Charge


@<TRIPOS>ATOM
      1 N1          -5.8420    -1.2280     4.0220 nb         1 138      -0.312000
      2 C2          -5.7480    -1.0090     5.3380 ca         1 138       0.407900
      3 NA2         -6.6350    -1.6750     6.1110 nv         1 138      -1.073900
      4 N3          -4.8840    -0.2180     5.9770 nb         1 138      -0.281000
      5 C4          -4.0070     0.4360     5.2010 ca         1 138       0.422300
      6 O4          -3.1180     1.2390     5.8460 oh         1 138      -0.575300
      7 C4A         -4.0040     0.2970     3.7920 ca         1 138      -0.246000
      8 C8A         -4.9670    -0.5760     3.2300 ca         1 138       0.092000
      9 C8          -4.9990    -0.7570     1.8370 ca         1 138      -0.144000
     10 C7          -4.0900    -0.0860     1.0040 ca         1 138      -0.045000
     11 C6          -3.1330     0.7840     1.5540 ca         1 138      -0.095300
     12 C9          -2.1350     1.5060     0.6470 c3         1 138      -0.011100
     13 C10         -0.8180     0.7180     0.3740 c3         1 138       0.237300
     14 OA2         -1.1390    -0.4610    -0.3900 oh         1 138      -0.658000
     15 CA1          0.1600     1.5810    -0.5060 c3         1 138       0.132800
     16 C5          -3.0950     0.9790     2.9490 ca         1 138      -0.046000
     17 C13         -0.5040    -0.9360     2.3290 ca         1 138      -0.121500
     18 C12          0.0570    -1.3110     3.5600 ca         1 138      -0.090500
     19 C11          0.9720    -0.4700     4.2290 ca         1 138      -0.121600
     20 C17          1.5590    -0.9090     5.5590 c          1 138       0.596700
     21 O17          1.2650    -1.9810     6.0760 o          1 138      -0.631100
     22 C16          1.3010     0.7670     3.6260 ca         1 138      -0.090500
     23 C15          0.7360     1.1410     2.3940 ca         1 138      -0.121500
     24 C14         -0.1670     0.2920     1.7140 ca         1 138      -0.130300
     25 N            2.4380    -0.0300     6.1640 ns         1 138      -0.422900
     26 CA           3.1570    -0.2620     7.4410 c3         1 138      -0.051300
     27 C            3.1550     1.0410     8.2990 c          1 138       0.716000
     28 O            3.4860     2.0920     7.7650 o          1 138      -0.741500
     29 OT           2.7350     0.9780     9.4460 o          1 138      -0.741500
     30 CB           4.6020    -0.7820     7.2170 c3         1 138      -0.054400
     31 CG           4.6960    -2.1560     6.5030 c3         1 138      -0.201400
     32 CD           6.1620    -2.6230     6.4430 c          1 138       0.712000
     33 OE2          6.8410    -2.2790     5.4870 o          1 138      -0.762500
     34 OE1          6.6000    -3.2760     7.3780 o          1 138      -0.762500
     35 C24          0.3760     1.6230    -8.6490 c5         1 138       0.137300
     36 O24         -0.7880     2.0810    -9.3530 oh         1 138      -0.722000
     37 C23          0.5140     2.3710    -7.2940 c5         1 138       0.076300
     38 O23          0.2130     3.7750    -7.4170 oh         1 138      -0.736000
     39 C22         -0.5310     1.5820    -6.4150 c5         1 138       0.302700
     40 O26         -0.6290     0.2570    -6.9780 os         1 138      -0.425000
     41 C25          0.2590     0.1520    -8.1290 c5         1 138       0.147300
     42 C27          1.6330    -0.4550    -7.6890 c3         1 138       0.242600
     43 O28          1.5980    -1.8920    -7.7220 os         1 138      -0.562400
     44 N21          0.0470     1.4760    -5.0820 ns         1 138      -0.509900
     45 C20          0.0860     2.6110    -4.2920 c          1 138       0.615100
     46 O20         -0.2830     3.7100    -4.6960 o          1 138      -0.601100
     47 C19          0.6410     2.3840    -2.8530 c3         1 138       0.068800
     48 N18         -0.3410     1.7830    -1.8910 n7         1 138      -0.856400
     49 P29          1.9000    -2.7000    -9.0830 p5         1 138       1.272900
     50 O30          1.7850    -4.1570    -8.8030 o          1 138      -0.926167
     51 O31          0.9230    -2.3290   -10.1410 o          1 138      -0.926167
     52 O32          3.2840    -2.4010    -9.5410 o          1 138      -0.926167
     53 HA21        -6.4590    -1.7260     7.1120 hn         1 138       0.483500
     54 HA22        -7.1520    -2.4460     5.6960 hn         1 138       0.483500
     55 HO4         -2.5040     1.5870     5.1720 ho         1 138       0.497000
     56 H8          -5.7330    -1.4270     1.3960 ha         1 138       0.114000
     57 H7          -4.1250    -0.2470    -0.0710 ha         1 138       0.117000
     58 H91         -2.6160     1.7460    -0.3090 hc         1 138       0.065200
     59 H92         -1.8740     2.4740     1.0910 hc         1 138       0.065200
     60 HA2         -0.4050    -1.0900    -0.2310 ho         1 138       0.444000
     61 HA11         0.3220     2.5580    -0.0310 h1         1 138       0.039200
     62 HA12         1.1310     1.0670    -0.5340 h1         1 138       0.039200
     63 H5          -2.3450     1.6530     3.3550 ha         1 138       0.119000
     64 H13         -1.2250    -1.6070     1.8670 ha         1 138       0.110500
     65 H12         -0.2300    -2.2640     4.0000 ha         1 138       0.135000
     66 H16          1.9930     1.4590     4.0990 ha         1 138       0.135000
     67 H15          1.0060     2.1100     1.9840 ha         1 138       0.110500
     68 H            2.6050     0.8460     5.6880 hn         1 138       0.295500
     69 HA           2.6070    -1.0170     8.0170 h1         1 138       0.055700
     70 HB1          5.1700    -0.0380     6.6450 hc         1 138       0.048200
     71 HB2          5.0930    -0.8620     8.1950 hc         1 138       0.048200
     72 HG1          4.0970    -2.8490     7.1070 hc         1 138       0.011700
     73 HG2          4.3040    -2.0010     5.4900 hc         1 138       0.011700
     74 HO5         -0.8760     3.0190    -9.0510 ho         1 138       0.491000
     75 HO3          0.0310     4.0830    -6.4870 ho         1 138       0.505000
     76 H22         -1.5180     2.0630    -6.4220 h2         1 138       0.072700
     77 H25         -0.2050    -0.4910    -8.8850 h1         1 138       0.082700
     78 H271         2.4150    -0.0820    -8.3630 h1         1 138      -0.004800
     79 H272         1.8870    -0.1080    -6.6790 h1         1 138      -0.004800
     80 H21          0.3510     0.6030    -4.6740 hn         1 138       0.312500
     81 H191         0.9840     3.3600    -2.4850 h1         1 138       0.052700
     82 H192         1.5280     1.7430    -2.9440 h1         1 138       0.052700
     83 H18         -0.6450     0.8590    -2.2320 hn         1 138       0.436000
     84 H24          1.2720     1.7580    -9.2720 h1         1 138       0.055700
     85 H23          1.5320     2.2390    -6.8980 h1         1 138       0.062700
@<TRIPOS>BOND
     1     1     2 ar  
     2     1     8 ar  
     3     2     3 1   
     4     2     4 ar  
     5     3    53 1   
     6     3    54 1   
     7     4     5 ar  
     8     5     6 1   
     9     5     7 ar  
    10     6    55 1   
    11     7     8 ar  
    12     7    16 ar  
    13     8     9 ar  
    14     9    10 ar  
    15     9    56 1   
    16    10    11 ar  
    17    10    57 1   
    18    11    12 1   
    19    11    16 ar  
    20    12    13 1   
    21    12    58 1   
    22    12    59 1   
    23    13    14 1   
    24    13    15 1   
    25    13    24 1   
    26    14    60 1   
    27    15    48 1   
    28    15    61 1   
    29    15    62 1   
    30    16    63 1   
    31    17    18 ar  
    32    17    24 ar  
    33    17    64 1   
    34    18    19 ar  
    35    18    65 1   
    36    19    20 1   
    37    19    22 ar  
    38    20    21 2   
    39    20    25 1   
    40    22    23 ar  
    41    22    66 1   
    42    23    24 ar  
    43    23    67 1   
    44    25    26 1   
    45    25    68 1   
    46    26    27 1   
    47    26    30 1   
    48    26    69 1   
    49    27    28 1   
    50    27    29 1   
    51    30    31 1   
    52    30    70 1   
    53    30    71 1   
    54    31    32 1   
    55    31    72 1   
    56    31    73 1   
    57    32    33 1   
    58    32    34 1   
    59    35    36 1   
    60    35    37 1   
    61    35    41 1   
    62    35    84 1   
    63    36    74 1   
    64    37    38 1   
    65    37    39 1   
    66    37    85 1   
    67    38    75 1   
    68    39    40 1   
    69    39    44 1   
    70    39    76 1   
    71    40    41 1   
    72    41    42 1   
    73    41    77 1   
    74    42    43 1   
    75    42    78 1   
    76    42    79 1   
    77    43    49 1   
    78    44    45 1   
    79    44    80 1   
    80    45    46 2   
    81    45    47 1   
    82    47    48 1   
    83    47    81 1   
    84    47    82 1   
    85    48    83 1   
    86    49    50 1   
    87    49    51 1   
    88    49    52 1   
@<TRIPOS>SUBSTRUCTURE
     1 138         1 TEMP              0 ****  ****    0 ROOT
