@<TRIPOS>MOLECULE
139
   65    69     1     0     0
SMALL
abcg2


@<TRIPOS>ATOM
      1 PA           0.5960    -1.1600     1.5830 p5         1 139       1.478800
      2 O1A         -0.6850    -1.6570     2.1680 o          1 139      -0.854000
      3 O2A          1.4950    -0.2400     2.3530 o          1 139      -0.854000
      4 O5D          1.4350    -2.5010     1.1110 os         1 139      -0.580400
      5 PB          -0.8430     0.5040    -0.3620 p5         1 139       1.464800
      6 O1B         -1.1410     1.4980     0.7100 o          1 139      -0.848000
      7 O2B         -0.4780     0.9650    -1.7400 o          1 139      -0.848000
      8 O3A          0.3230    -0.5590     0.0810 os         1 139      -0.697800
      9 N9A          4.9790     0.4480    -0.0680 na         1 139      -0.313300
     10 C4A          6.0890     1.2340    -0.1750 ca         1 139       0.090500
     11 N3A          7.0380     1.2030    -1.1090 nb         1 139      -0.215000
     12 C2A          7.9730     2.1100    -0.8900 ca         1 139       0.143900
     13 N1A          8.0550     2.9890     0.1060 nb         1 139      -0.327000
     14 C6A          7.0920     3.0100     1.0350 ca         1 139       0.430900
     15 N6A          7.1780     3.8800     2.0440 nv         1 139      -1.080900
     16 C5A          6.0320     2.0950     0.9100 ca         1 139      -0.079600
     17 N7A          4.9090     1.8580     1.6590 nc         1 139      -0.581100
     18 C8A          4.3000     0.8830     1.0420 cd         1 139       0.472700
     19 C5D          2.8360    -2.5850     1.2320 c3         1 139       0.233600
     20 C4D          3.5460    -2.4340    -0.0950 c5         1 139       0.135300
     21 O4D          3.3600    -1.1320    -0.6480 os         1 139      -0.375000
     22 C1D          4.5700    -0.5710    -1.0350 c5         1 139       0.321300
     23 C2D          5.5830    -1.7130    -1.0890 c5         1 139       0.089300
     24 O2D          5.4510    -2.3330    -2.3370 oh         1 139      -0.705000
     25 C3D          5.0580    -2.6100     0.0360 c5         1 139       0.079300
     26 O3D          5.4040    -3.9600    -0.1090 oh         1 139      -0.711000
     27 O5B         -4.9170    -3.2420     1.3540 oh         1 139      -0.743000
     28 C5B         -4.2160    -2.0190     1.2940 c3         1 139       0.142600
     29 C4B         -4.2340    -1.4860    -0.1130 c5         1 139       0.154300
     30 O4B         -5.5450    -1.1140    -0.5050 os         1 139      -0.472000
     31 C1B         -5.4810    -0.1020    -1.4700 c5         1 139       0.339700
     32 C2B         -4.0650     0.4940    -1.4390 c5         1 139      -0.153400
     33 C3B         -3.3920    -0.2210    -0.2670 c5         1 139       0.226300
     34 O3B         -2.0630    -0.5930    -0.5070 os         1 139      -0.581400
     35 N1U         -6.5850     0.8270    -1.2540 n          1 139      -0.302000
     36 C6U         -7.6430     0.8060    -2.1180 cc         1 139       0.035600
     37 C2U         -6.6150     1.6270    -0.1290 c          1 139       0.609000
     38 O2U         -5.7290     1.6500     0.6970 o          1 139      -0.499000
     39 N3U         -7.7350     2.4090    -0.0080 ns         1 139      -0.477500
     40 C4U         -8.8410     2.4610    -0.8460 c          1 139       0.599200
     41 O4U         -9.7800     3.1910    -0.5900 o          1 139      -0.575000
     42 C5U         -8.7370     1.5710    -1.9760 cd         1 139      -0.432200
     43 H2A          8.7810     2.1480    -1.6130 h5         1 139       0.023100
     44 H6A1         7.9190     4.5590     2.0630 hn         1 139       0.496000
     45 H6A2         6.4380     3.9640     2.7180 hn         1 139       0.496000
     46 H8A          3.3570     0.4490     1.3590 h5         1 139       0.161800
     47 HA51         3.0830    -3.5840     1.6100 h1         1 139       0.022200
     48 HA52         3.2240    -1.8640     1.9560 h1         1 139       0.022200
     49 H4D          3.1460    -3.1720    -0.8010 h1         1 139       0.084700
     50 H1D          4.4700    -0.0850    -2.0100 h2         1 139       0.115700
     51 H2D          6.6080    -1.3700    -0.9070 h1         1 139       0.064700
     52 HD2          5.6320    -3.2740    -2.2180 ho         1 139       0.510000
     53 H3D          5.3990    -2.2080     0.9990 h1         1 139       0.055700
     54 HD3          6.2770    -4.1010     0.2730 ho         1 139       0.494000
     55 HB5         -4.8560    -3.5740     2.2550 ho         1 139       0.488000
     56 HU51        -3.1610    -2.1300     1.5710 h1         1 139       0.073200
     57 HU52        -4.6480    -1.2670     1.9680 h1         1 139       0.073200
     58 H4B         -3.8380    -2.2500    -0.8040 h1         1 139       0.067700
     59 H1B         -5.6740    -0.5120    -2.4650 h2         1 139       0.033700
     60 HU21        -4.0400     1.5780    -1.3480 hc         1 139       0.078200
     61 HU22        -3.5560     0.2280    -2.3650 hc         1 139       0.078200
     62 H3B         -3.4660     0.3910     0.6340 h1         1 139       0.085700
     63 H6U         -7.5550     0.1060    -2.9370 h4         1 139       0.198000
     64 HN3U        -7.7560     3.0020     0.8140 hn         1 139       0.332500
     65 H5U         -9.5510     1.5060    -2.6800 ha         1 139       0.203000
@<TRIPOS>BOND
     1     1     2 1   
     2     1     3 1   
     3     1     4 1   
     4     1     8 1   
     5     4    19 1   
     6     5     6 1   
     7     5     7 1   
     8     5     8 1   
     9     5    34 1   
    10     9    10 1   
    11     9    18 1   
    12     9    22 1   
    13    10    11 ar  
    14    10    16 ar  
    15    11    12 ar  
    16    12    13 ar  
    17    12    43 1   
    18    13    14 ar  
    19    14    15 1   
    20    14    16 ar  
    21    15    44 1   
    22    15    45 1   
    23    16    17 1   
    24    17    18 2   
    25    18    46 1   
    26    19    20 1   
    27    19    47 1   
    28    19    48 1   
    29    20    21 1   
    30    20    25 1   
    31    20    49 1   
    32    21    22 1   
    33    22    23 1   
    34    22    50 1   
    35    23    24 1   
    36    23    25 1   
    37    23    51 1   
    38    24    52 1   
    39    25    26 1   
    40    25    53 1   
    41    26    54 1   
    42    27    28 1   
    43    27    55 1   
    44    28    29 1   
    45    28    56 1   
    46    28    57 1   
    47    29    30 1   
    48    29    33 1   
    49    29    58 1   
    50    30    31 1   
    51    31    32 1   
    52    31    35 1   
    53    31    59 1   
    54    32    33 1   
    55    32    60 1   
    56    32    61 1   
    57    33    34 1   
    58    33    62 1   
    59    35    36 1   
    60    35    37 1   
    61    36    42 2   
    62    36    63 1   
    63    37    38 2   
    64    37    39 1   
    65    39    40 1   
    66    39    64 1   
    67    40    41 2   
    68    40    42 1   
    69    42    65 1   
@<TRIPOS>SUBSTRUCTURE
     1 139         1 TEMP              0 ****  ****    0 ROOT
