@<TRIPOS>MOLECULE
139
   65    69     1     0     0
SMALL
No Charge or Current Charge


@<TRIPOS>ATOM
      1 PA           0.8620     0.5400     2.6060 p5         1 139       1.478800
      2 O1A          0.0230     0.6860     3.8320 o          1 139      -0.854000
      3 O2A          1.7620     1.7100     2.3900 o          1 139      -0.854000
      4 O5D          1.7420    -0.8060     2.7570 os         1 139      -0.580400
      5 PB          -0.6960     1.3150     0.6650 p5         1 139       1.464800
      6 O1B         -1.4970     2.1870     1.5730 o          1 139      -0.848000
      7 O2B          0.2170     2.0950    -0.2220 o          1 139      -0.848000
      8 O3A          0.0080     0.0920     1.3640 os         1 139      -0.697800
      9 N9A          4.3780     0.6840    -0.5620 na         1 139      -0.313300
     10 C4A          5.7500     0.6350    -0.4510 ca         1 139       0.090500
     11 N3A          6.6490    -0.2850    -0.8590 nb         1 139      -0.215000
     12 C2A          7.9480    -0.0180    -0.5900 ca         1 139       0.143900
     13 N1A          8.4340     1.0750     0.0430 nb         1 139      -0.327000
     14 C6A          7.5220     1.9730     0.4410 ca         1 139       0.430900
     15 N6A          8.0130     3.0730     1.0730 nv         1 139      -1.080900
     16 C5A          6.1430     1.7790     0.2010 ca         1 139      -0.079600
     17 N7A          5.0730     2.6010     0.5290 nc         1 139      -0.581100
     18 C8A          4.0210     1.9000     0.0570 cd         1 139       0.472700
     19 C5D          2.9220    -1.0490     1.9710 c3         1 139       0.233600
     20 C4D          2.5650    -1.5330     0.5310 c5         1 139       0.135300
     21 O4D          2.3050    -0.4190    -0.3630 os         1 139      -0.375000
     22 C1D          3.4360    -0.2270    -1.2290 c5         1 139       0.321300
     23 C2D          3.8620    -1.6970    -1.5510 c5         1 139       0.089300
     24 O2D          2.9700    -2.3740    -2.4460 oh         1 139      -0.705000
     25 C3D          3.7360    -2.3470    -0.1410 c5         1 139       0.079300
     26 O3D          3.4570    -3.7570    -0.2670 oh         1 139      -0.711000
     27 O5B         -3.1510    -4.0140    -0.2500 oh         1 139      -0.743000
     28 C5B         -3.0600    -2.8060     0.5400 c3         1 139       0.142600
     29 C4B         -3.1300    -1.5320    -0.3480 c5         1 139       0.154300
     30 O4B         -4.4720    -1.3470    -0.8650 os         1 139      -0.472000
     31 C1B         -4.6160     0.0580    -1.0930 c5         1 139       0.339700
     32 C2B         -4.0480     0.7040     0.1860 c5         1 139      -0.153400
     33 C3B         -2.7990    -0.1970     0.4150 c5         1 139       0.226300
     34 O3B         -1.6800     0.4270    -0.2550 os         1 139      -0.581400
     35 N1U         -6.0190     0.5210    -1.2580 n          1 139      -0.302000
     36 C6U         -6.2600     1.5650    -2.1520 cc         1 139       0.035600
     37 C2U         -7.0840    -0.1000    -0.5580 c          1 139       0.609000
     38 O2U         -6.9500    -0.9790     0.2770 o          1 139      -0.499000
     39 N3U         -8.3320     0.3700    -0.8410 ns         1 139      -0.477500
     40 C4U         -8.6890     1.3610    -1.6930 c          1 139       0.599200
     41 O4U         -9.8480     1.6940    -1.8630 o          1 139      -0.575000
     42 C5U         -7.5520     1.9800    -2.3710 cd         1 139      -0.432200
     43 H2A          8.6760    -0.7570    -0.9190 h5         1 139       0.023100
     44 H6A1         8.9980     3.2910     0.9530 hn         1 139       0.496000
     45 H6A2         7.3790     3.8600     1.1900 hn         1 139       0.496000
     46 H8A          2.9810     2.2100     0.1110 h5         1 139       0.161800
     47 HA51         3.5100    -1.8370     2.4590 h1         1 139       0.022200
     48 HA52         3.5630    -0.1600     1.9240 h1         1 139       0.022200
     49 H4D          1.6540    -2.1430     0.5900 h1         1 139       0.084700
     50 H1D          3.1260     0.2890    -2.1470 h2         1 139       0.115700
     51 H2D          4.8870    -1.7570    -1.9370 h1         1 139       0.064700
     52 HD2          2.8140    -3.2250    -1.9590 ho         1 139       0.510000
     53 H3D          4.6740    -2.1930     0.4130 h1         1 139       0.055700
     54 HD3          3.6670    -4.1840     0.5980 ho         1 139       0.494000
     55 HB5         -3.1730    -4.7740     0.3790 ho         1 139       0.488000
     56 HU51        -2.1090    -2.7860     1.0920 h1         1 139       0.073200
     57 HU52        -3.8700    -2.7590     1.2830 h1         1 139       0.073200
     58 H4B         -2.4450    -1.6600    -1.1960 h1         1 139       0.067700
     59 H1B         -4.0460     0.3550    -1.9830 h2         1 139       0.033700
     60 HU21        -4.7450     0.6250     1.0270 hc         1 139       0.078200
     61 HU22        -3.8090     1.7640     0.0490 hc         1 139       0.078200
     62 H3B         -2.5830    -0.3560     1.4820 h1         1 139       0.085700
     63 H6U         -5.3660     1.9730    -2.6190 h4         1 139       0.198000
     64 HN3U        -9.0880    -0.0730    -0.3450 hn         1 139       0.332500
     65 H5U         -7.7970     2.7830    -3.0570 ha         1 139       0.203000
@<TRIPOS>BOND
     1     1     2 1   
     2     1     3 1   
     3     1     4 1   
     4     1     8 1   
     5     4    19 1   
     6     5     6 1   
     7     5     7 1   
     8     5     8 1   
     9     5    34 1   
    10     9    10 1   
    11     9    18 1   
    12     9    22 1   
    13    10    11 ar  
    14    10    16 ar  
    15    11    12 ar  
    16    12    13 ar  
    17    12    43 1   
    18    13    14 ar  
    19    14    15 1   
    20    14    16 ar  
    21    15    44 1   
    22    15    45 1   
    23    16    17 1   
    24    17    18 2   
    25    18    46 1   
    26    19    20 1   
    27    19    47 1   
    28    19    48 1   
    29    20    21 1   
    30    20    25 1   
    31    20    49 1   
    32    21    22 1   
    33    22    23 1   
    34    22    50 1   
    35    23    24 1   
    36    23    25 1   
    37    23    51 1   
    38    24    52 1   
    39    25    26 1   
    40    25    53 1   
    41    26    54 1   
    42    27    28 1   
    43    27    55 1   
    44    28    29 1   
    45    28    56 1   
    46    28    57 1   
    47    29    30 1   
    48    29    33 1   
    49    29    58 1   
    50    30    31 1   
    51    31    32 1   
    52    31    35 1   
    53    31    59 1   
    54    32    33 1   
    55    32    60 1   
    56    32    61 1   
    57    33    34 1   
    58    33    62 1   
    59    35    36 1   
    60    35    37 1   
    61    36    42 2   
    62    36    63 1   
    63    37    38 2   
    64    37    39 1   
    65    39    40 1   
    66    39    64 1   
    67    40    41 2   
    68    40    42 1   
    69    42    65 1   
@<TRIPOS>SUBSTRUCTURE
     1 139         1 TEMP              0 ****  ****    0 ROOT
