@<TRIPOS>MOLECULE
13A
   33    35     1     0     0
SMALL
abcg2


@<TRIPOS>ATOM
      1 O21         -3.1820     0.7310    -1.6050 o          1 13A      -0.525500
      2 S16         -2.9760     0.9650    -0.1980 s6         1 13A       1.316900
      3 O20         -3.5720     2.1000     0.4560 o          1 13A      -0.525500
      4 N17         -3.4100    -0.4070     0.6540 ns         1 13A      -0.623300
      5 C18         -2.7380    -1.6250     0.5440 c          1 13A       0.530500
      6 O19         -3.2650    -2.6650     0.8630 o          1 13A      -0.470000
      7 C13         -1.3640    -1.4700     0.1020 cc         1 13A       0.132500
      8 N12         -0.4650    -2.4680    -0.1370 nc         1 13A      -0.594000
      9 C11          0.6560    -1.8650    -0.4040 cd         1 13A       0.409400
     10 N15         -1.3360     1.0010     0.0570 nu         1 13A      -0.877100
     11 C14         -0.7530    -0.2510    -0.0430 cd         1 13A       0.185000
     12 N10          0.5310    -0.5030    -0.3730 na         1 13A      -0.171500
     13 C5           1.5730     0.5030    -0.5520 c5         1 13A       0.308300
     14 O1           2.6540    -0.0760    -1.1960 os         1 13A      -0.411000
     15 C4           2.0810     1.0460     0.7910 c5         1 13A       0.130300
     16 O7           1.3210     2.1560     1.1570 oh         1 13A      -0.688000
     17 C3           3.5610     1.2860     0.4840 c5         1 13A       0.110300
     18 O6           3.6650     2.5050    -0.1970 oh         1 13A      -0.683000
     19 C2           3.8490     0.0870    -0.4190 c5         1 13A       0.122300
     20 C8           4.1770    -1.1730     0.3590 c3         1 13A       0.141600
     21 O9           4.2680    -2.2440    -0.5470 oh         1 13A      -0.702000
     22 H17         -4.3650    -0.4210     1.0040 hn         1 13A       0.348500
     23 H11          1.5910    -2.3490    -0.6420 h5         1 13A       0.084100
     24 H15         -1.0120     1.6180     0.8010 hn         1 13A       0.522000
     25 H5           1.1360     1.3070    -1.1560 h2         1 13A       0.127700
     26 H4           2.0100     0.2560     1.5470 h1         1 13A       0.052700
     27 HO7          1.4700     2.3430     2.0890 ho         1 13A       0.519000
     28 H3           4.1770     1.2660     1.3920 h1         1 13A       0.056700
     29 HO6          4.5930     2.6630    -0.4020 ho         1 13A       0.512000
     30 H2           4.6620     0.2940    -1.1200 h1         1 13A       0.098700
     31 H81          3.4120    -1.3600     1.1260 h1         1 13A       0.024700
     32 H82          5.1210    -1.0020     0.8910 h1         1 13A       0.024700
     33 HO9          4.4720    -3.0400    -0.0480 ho         1 13A       0.512000
@<TRIPOS>BOND
     1     1     2 2   
     2     2     3 2   
     3     2     4 1   
     4     2    10 1   
     5     4     5 1   
     6     4    22 1   
     7     5     6 2   
     8     5     7 1   
     9     7     8 1   
    10     7    11 2   
    11     8     9 2   
    12     9    12 1   
    13     9    23 1   
    14    10    11 1   
    15    10    24 1   
    16    11    12 1   
    17    12    13 1   
    18    13    14 1   
    19    13    15 1   
    20    13    25 1   
    21    14    19 1   
    22    15    16 1   
    23    15    17 1   
    24    15    26 1   
    25    16    27 1   
    26    17    18 1   
    27    17    19 1   
    28    17    28 1   
    29    18    29 1   
    30    19    20 1   
    31    19    30 1   
    32    20    21 1   
    33    20    31 1   
    34    20    32 1   
    35    21    33 1   
@<TRIPOS>SUBSTRUCTURE
     1 13A         1 TEMP              0 ****  ****    0 ROOT
