@<TRIPOS>MOLECULE
13A
   33    35     1     0     0
SMALL
No Charge or Current Charge


@<TRIPOS>ATOM
      1 O21         -3.4600     2.0330     0.3560 o          1 13A      -0.525500
      2 S16         -2.6700     0.9280     0.8970 s6         1 13A       1.316900
      3 O20         -2.2470     0.8990     2.2940 o          1 13A      -0.525500
      4 N17         -3.4080    -0.5200     0.5200 ns         1 13A      -0.623300
      5 C18         -2.8300    -1.6890     0.0990 c          1 13A       0.530500
      6 O19         -3.4960    -2.7140     0.0560 o          1 13A      -0.470000
      7 C13         -1.3900    -1.6070    -0.2920 cc         1 13A       0.132500
      8 N12         -0.5400    -2.6160    -0.6860 nc         1 13A      -0.594000
      9 C11          0.6280    -2.0140    -0.9210 cd         1 13A       0.409400
     10 N15         -1.2960     0.8070    -0.0010 nu         1 13A      -0.877100
     11 C14         -0.7550    -0.4070    -0.3020 cd         1 13A       0.185000
     12 N10          0.5410    -0.6440    -0.6870 na         1 13A      -0.171500
     13 C5           1.6030     0.3490    -0.8130 c5         1 13A       0.308300
     14 O1           2.8590    -0.2740    -1.1870 os         1 13A      -0.411000
     15 C4           1.8870     1.1680     0.4950 c5         1 13A       0.130300
     16 O7           1.1490     2.3960     0.5830 oh         1 13A      -0.688000
     17 C3           3.4120     1.4300     0.3670 c5         1 13A       0.110300
     18 O6           3.6680     2.5160    -0.5450 oh         1 13A      -0.683000
     19 C2           3.8640     0.0380    -0.1880 c5         1 13A       0.122300
     20 C8           3.9230    -1.0950     0.8850 c3         1 13A       0.141600
     21 O9           4.5010    -2.2930     0.3380 oh         1 13A      -0.702000
     22 H17         -4.3780    -0.5200     0.7840 hn         1 13A       0.348500
     23 H11          1.5460    -2.4900    -1.2470 h5         1 13A       0.084100
     24 H15         -0.6610     1.5050     0.3850 hn         1 13A       0.522000
     25 H5           1.2910     1.0280    -1.6160 h2         1 13A       0.127700
     26 H4           1.6780     0.5500     1.3800 h1         1 13A       0.052700
     27 HO7          1.7610     3.0690     0.1880 ho         1 13A       0.519000
     28 H3           3.8660     1.6370     1.3470 h1         1 13A       0.056700
     29 HO6          4.6460     2.6350    -0.6030 ho         1 13A       0.512000
     30 H2           4.8490     0.1010    -0.6710 h1         1 13A       0.098700
     31 H81          2.9160    -1.3030     1.2670 h1         1 13A       0.024700
     32 H82          4.5310    -0.7410     1.7290 h1         1 13A       0.024700
     33 HO9          4.5520    -2.9530     1.0690 ho         1 13A       0.512000
@<TRIPOS>BOND
     1     1     2 2   
     2     2     3 2   
     3     2     4 1   
     4     2    10 1   
     5     4     5 1   
     6     4    22 1   
     7     5     6 2   
     8     5     7 1   
     9     7     8 1   
    10     7    11 2   
    11     8     9 2   
    12     9    12 1   
    13     9    23 1   
    14    10    11 1   
    15    10    24 1   
    16    11    12 1   
    17    12    13 1   
    18    13    14 1   
    19    13    15 1   
    20    13    25 1   
    21    14    19 1   
    22    15    16 1   
    23    15    17 1   
    24    15    26 1   
    25    16    27 1   
    26    17    18 1   
    27    17    19 1   
    28    17    28 1   
    29    18    29 1   
    30    19    20 1   
    31    19    30 1   
    32    20    21 1   
    33    20    31 1   
    34    20    32 1   
    35    21    33 1   
@<TRIPOS>SUBSTRUCTURE
     1 13A         1 TEMP              0 ****  ****    0 ROOT
