@<TRIPOS>MOLECULE
13C
   43    44     1     0     0
SMALL
No Charge or Current Charge


@<TRIPOS>ATOM
      1 C1          37.8710    40.2580    -5.9540 c          1 13C       0.626700
      2 C2          36.9810    41.0300    -4.9950 ca         1 13C      -0.204600
      3 C3          35.6800    41.4170    -5.4150 ca         1 13C       0.196100
      4 C4          34.8140    42.0940    -4.5520 ca         1 13C      -0.240000
      5 C5          35.2100    42.3970    -3.2540 ca         1 13C       0.207100
      6 C6          36.4890    42.0320    -2.8000 ca         1 13C       0.001000
      7 C7          37.3960    41.3530    -3.6600 ca         1 13C       0.065700
      8 C8          38.8110    41.0490    -3.1270 c3         1 13C      -0.155100
      9 C9          39.7780    42.2290    -3.3100 c          1 13C       0.574100
     10 C10         41.1890    41.9090    -3.8340 c3         1 13C      -0.177400
     11 C11         41.3080    42.0870    -5.3660 c3         1 13C      -0.070400
     12 C12         41.1870    43.5550    -5.8500 c3         1 13C      -0.077400
     13 C13         41.3460    43.7130    -7.3780 c3         1 13C      -0.040200
     14 C14         40.2410    43.0110    -8.1360 c2         1 13C      -0.211200
     15 C15         40.3370    41.7820    -8.6640 c2         1 13C      -0.222200
     16 C16         39.2080    41.0290    -9.3340 c3         1 13C      -0.055200
     17 C17         38.5460    40.0120    -8.3830 c3         1 13C       0.104000
     18 O2          38.5130    39.2740    -5.6160 o          1 13C      -0.612100
     19 O3          35.2030    41.1090    -6.6540 oh         1 13C      -0.534100
     20 O4          34.3370    43.0510    -2.4340 oh         1 13C      -0.526100
     21 Cl1         36.9180    42.4570    -1.1290 cl         1 13C      -0.205000
     22 N1          37.8560    40.6710    -7.2670 ns         1 13C      -0.485900
     23 O5          39.4630    43.3740    -3.0140 o          1 13C      -0.515100
     24 H1          37.2250    41.4350    -7.4760 hn         1 13C       0.317500
     25 H4          33.8180    42.3820    -4.8800 ha         1 13C       0.137000
     26 H3          34.2700    41.4040    -6.7100 ho         1 13C       0.473000
     27 HA          34.7860    43.1790    -1.5700 ho         1 13C       0.483000
     28 H81C        38.7890    40.8200    -2.0580 hc         1 13C       0.090700
     29 H82C        39.2570    40.1490    -3.5490 hc         1 13C       0.090700
     30 H101        41.9180    42.5620    -3.3410 hc         1 13C       0.064200
     31 H102        41.4240    40.8590    -3.6200 hc         1 13C       0.064200
     32 H111        42.2790    41.6910    -5.6880 hc         1 13C       0.048200
     33 H112        40.5440    41.4700    -5.8530 hc         1 13C       0.048200
     34 H121        40.2150    43.9670    -5.5550 hc         1 13C       0.049700
     35 H122        41.9540    44.1610    -5.3510 hc         1 13C       0.049700
     36 H131        41.3540    44.7800    -7.6330 hc         1 13C       0.045200
     37 H132        42.3260    43.3190    -7.6760 hc         1 13C       0.045200
     38 H14         39.3030    43.5680    -8.1900 ha         1 13C       0.166000
     39 H15         41.2710    41.2200    -8.5890 ha         1 13C       0.169000
     40 H161        38.4420    41.7250    -9.6980 hc         1 13C       0.049700
     41 H162        39.5870    40.4990   -10.2160 hc         1 13C       0.049700
     42 H171        37.8090    39.4200    -8.9410 h1         1 13C       0.056700
     43 H172        39.3120    39.3250    -8.0000 h1         1 13C       0.056700
@<TRIPOS>BOND
     1     1     2 1   
     2     1    18 2   
     3     1    22 1   
     4     2     3 ar  
     5     2     7 ar  
     6     3     4 ar  
     7     3    19 1   
     8     4     5 ar  
     9     4    25 1   
    10     5     6 ar  
    11     5    20 1   
    12     6     7 ar  
    13     6    21 1   
    14     7     8 1   
    15     8     9 1   
    16     8    28 1   
    17     8    29 1   
    18     9    10 1   
    19     9    23 2   
    20    10    11 1   
    21    10    30 1   
    22    10    31 1   
    23    11    12 1   
    24    11    32 1   
    25    11    33 1   
    26    12    13 1   
    27    12    34 1   
    28    12    35 1   
    29    13    14 1   
    30    13    36 1   
    31    13    37 1   
    32    14    15 2   
    33    14    38 1   
    34    15    16 1   
    35    15    39 1   
    36    16    17 1   
    37    16    40 1   
    38    16    41 1   
    39    17    22 1   
    40    17    42 1   
    41    17    43 1   
    42    19    26 1   
    43    20    27 1   
    44    22    24 1   
@<TRIPOS>SUBSTRUCTURE
     1 13C         1 TEMP              0 ****  ****    0 ROOT
