@<TRIPOS>MOLECULE
13C
   43    44     1     0     0
SMALL
abcg2


@<TRIPOS>ATOM
      1 C1          37.5670    40.2000    -6.0430 c          1 13C       0.626700
      2 C2          36.7420    40.9410    -5.0230 ca         1 13C      -0.204600
      3 C3          35.3750    41.1300    -5.2630 ca         1 13C       0.196100
      4 C4          34.5590    41.7250    -4.3110 ca         1 13C      -0.240000
      5 C5          35.0970    42.1410    -3.1020 ca         1 13C       0.207100
      6 C6          36.4620    41.9550    -2.8620 ca         1 13C       0.001000
      7 C7          37.2960    41.3600    -3.8070 ca         1 13C       0.065700
      8 C8          38.7660    41.2190    -3.5490 c3         1 13C      -0.155100
      9 C9          39.5620    42.5070    -3.7160 c          1 13C       0.574100
     10 C10         41.0610    42.3370    -3.7170 c3         1 13C      -0.177400
     11 C11         41.5730    42.2150    -5.1680 c3         1 13C      -0.070400
     12 C12         41.6370    43.5520    -5.9040 c3         1 13C      -0.077400
     13 C13         41.8630    43.3820    -7.4170 c3         1 13C      -0.040200
     14 C14         40.6180    42.9280    -8.1170 c2         1 13C      -0.211200
     15 C15         40.4010    41.7060    -8.5920 c2         1 13C      -0.222200
     16 C16         39.1260    41.2470    -9.2300 c3         1 13C      -0.055200
     17 C17         38.3630    40.2280    -8.3790 c3         1 13C       0.104000
     18 O2          38.0020    39.0690    -5.8090 o          1 13C      -0.612100
     19 O3          34.8750    40.6850    -6.4490 oh         1 13C      -0.534100
     20 O4          34.2630    42.7090    -2.2020 oh         1 13C      -0.526100
     21 CL1         37.0880    42.4930    -1.3150 cl         1 13C      -0.205000
     22 N1          37.7780    40.8490    -7.1990 ns         1 13C      -0.485900
     23 O5          39.0300    43.5880    -3.8720 o          1 13C      -0.515100
     24 H1          37.3390    41.7490    -7.3170 hn         1 13C       0.317500
     25 H4          33.5000    41.8620    -4.4960 ha         1 13C       0.137000
     26 H3          33.9230    40.8490    -6.4940 ho         1 13C       0.473000
     27 HA          34.7580    42.9620    -1.4070 ho         1 13C       0.483000
     28 H81C        38.9550    40.8830    -2.5250 hc         1 13C       0.090700
     29 H82C        39.2080    40.4600    -4.1920 hc         1 13C       0.090700
     30 H101        41.5160    43.2020    -3.2310 hc         1 13C       0.064200
     31 H102        41.3260    41.4400    -3.1560 hc         1 13C       0.064200
     32 H111        42.5700    41.7690    -5.1450 hc         1 13C       0.048200
     33 H112        40.9360    41.5170    -5.7190 hc         1 13C       0.048200
     34 H121        40.7120    44.1120    -5.7440 hc         1 13C       0.049700
     35 H122        42.4440    44.1540    -5.4770 hc         1 13C       0.049700
     36 H131        42.1840    44.3410    -7.8350 hc         1 13C       0.045200
     37 H132        42.6740    42.6680    -7.5890 hc         1 13C       0.045200
     38 H14         39.8220    43.6670    -8.1950 ha         1 13C       0.166000
     39 H15         41.1850    40.9560    -8.5020 ha         1 13C       0.169000
     40 H161        38.4760    42.1020    -9.4380 hc         1 13C       0.049700
     41 H162        39.3390    40.7670   -10.1900 hc         1 13C       0.049700
     42 H171        37.5700    39.7690    -8.9780 h1         1 13C       0.056700
     43 H172        39.0270    39.4330    -8.0440 h1         1 13C       0.056700
@<TRIPOS>BOND
     1     1     2 1   
     2     1    18 2   
     3     1    22 1   
     4     2     3 ar  
     5     2     7 ar  
     6     3     4 ar  
     7     3    19 1   
     8     4     5 ar  
     9     4    25 1   
    10     5     6 ar  
    11     5    20 1   
    12     6     7 ar  
    13     6    21 1   
    14     7     8 1   
    15     8     9 1   
    16     8    28 1   
    17     8    29 1   
    18     9    10 1   
    19     9    23 2   
    20    10    11 1   
    21    10    30 1   
    22    10    31 1   
    23    11    12 1   
    24    11    32 1   
    25    11    33 1   
    26    12    13 1   
    27    12    34 1   
    28    12    35 1   
    29    13    14 1   
    30    13    36 1   
    31    13    37 1   
    32    14    15 2   
    33    14    38 1   
    34    15    16 1   
    35    15    39 1   
    36    16    17 1   
    37    16    40 1   
    38    16    41 1   
    39    17    22 1   
    40    17    42 1   
    41    17    43 1   
    42    19    26 1   
    43    20    27 1   
    44    22    24 1   
@<TRIPOS>SUBSTRUCTURE
     1 13C         1 TEMP              0 ****  ****    0 ROOT
