@<TRIPOS>MOLECULE
13D
   15    14     1     0     0
SMALL
bcc


@<TRIPOS>ATOM
      1 CA           1.2700     0.5080    -0.0500 c3         1 13D       0.149800
      2 CB           0.0060    -0.3370    -0.0220 c3         1 13D      -0.083400
      3 CC          -1.2590     0.5070    -0.0090 c3         1 13D       0.149800
      4 ND          -2.4470    -0.3350     0.0100 n8         1 13D      -0.884300
      5 NAA          2.4590    -0.3340    -0.0540 n8         1 13D      -0.884300
      6 HAC1         1.2410     1.2190     0.7890 h1         1 13D       0.024450
      7 HAC2         1.2760     1.1120    -0.9610 h1         1 13D       0.024450
      8 HBC1        -0.0000    -0.9990    -0.8950 hc         1 13D       0.053700
      9 HBC2         0.0130    -0.9830     0.8620 hc         1 13D       0.053700
     10 HCC1        -1.2650     1.1270     0.8920 h1         1 13D       0.024450
     11 HCC2        -1.2300     1.2040    -0.8600 h1         1 13D       0.024450
     12 HDN1        -3.2740     0.2480     0.0390 hn         1 13D       0.336800
     13 HDN2        -2.5050    -0.8450    -0.8630 hn         1 13D       0.336800
     14 HAA1         3.2840     0.2500    -0.1050 hn         1 13D       0.336800
     15 HAA2         2.5240    -0.8170     0.8340 hn         1 13D       0.336800
@<TRIPOS>BOND
     1     1     2 1   
     2     1     5 1   
     3     1     6 1   
     4     1     7 1   
     5     2     3 1   
     6     2     8 1   
     7     2     9 1   
     8     3     4 1   
     9     3    10 1   
    10     3    11 1   
    11     4    12 1   
    12     4    13 1   
    13     5    14 1   
    14     5    15 1   
@<TRIPOS>SUBSTRUCTURE
     1 13D         1 TEMP              0 ****  ****    0 ROOT
