@<TRIPOS>MOLECULE
13D
   15    14     1     0     0
SMALL
No Charge or Current Charge


@<TRIPOS>ATOM
      1 CA           1.2860     0.5150    -0.0560 c3         1 13D       0.149800
      2 CB           0.0070    -0.3440    -0.0220 c3         1 13D      -0.083400
      3 CC          -1.2750     0.5130    -0.0050 c3         1 13D       0.149800
      4 ND          -2.4890    -0.3240     0.0350 n8         1 13D      -0.994700
      5 NAA          2.5020    -0.3200    -0.0800 n8         1 13D      -0.994700
      6 HAC1         1.3220     1.1630     0.8310 h1         1 13D       0.024450
      7 HAC2         1.2810     1.1510    -0.9520 h1         1 13D       0.024450
      8 HBC1        -0.0090    -1.0030    -0.8990 hc         1 13D       0.053700
      9 HBC2         0.0240    -0.9850     0.8680 hc         1 13D       0.053700
     10 HCC1        -1.2700     1.1660     0.8790 h1         1 13D       0.024450
     11 HCC2        -1.3110     1.1430    -0.9040 h1         1 13D       0.024450
     12 HDN1        -3.3160     0.2850    -0.0130 hn         1 13D       0.392000
     13 HDN2        -2.5450    -0.8730    -0.8310 hn         1 13D       0.392000
     14 HAA1         3.3280     0.2910    -0.0430 hn         1 13D       0.392000
     15 HAA2         2.5590    -0.8530     0.7970 hn         1 13D       0.392000
@<TRIPOS>BOND
     1     1     2 1   
     2     1     5 1   
     3     1     6 1   
     4     1     7 1   
     5     2     3 1   
     6     2     8 1   
     7     2     9 1   
     8     3     4 1   
     9     3    10 1   
    10     3    11 1   
    11     4    12 1   
    12     4    13 1   
    13     5    14 1   
    14     5    15 1   
@<TRIPOS>SUBSTRUCTURE
     1 13D         1 TEMP              0 ****  ****    0 ROOT
