@<TRIPOS>MOLECULE
13E
   40    40     1     0     0
SMALL
bcc


@<TRIPOS>ATOM
      1 N            1.3010     1.3510     0.1330 n8         1 13E      -0.861800
      2 C1           1.4380    -0.0950     0.1580 c3         1 13E       0.160500
      3 C2           2.6680    -0.6050     0.9370 c3         1 13E      -0.083100
      4 C3           3.9570    -0.0560     0.3990 ca         1 13E      -0.065300
      5 C4           4.5540     1.0710     0.9610 ca         1 13E      -0.129500
      6 C5           4.5580    -0.6300    -0.7210 ca         1 13E      -0.129500
      7 C6           5.7180     1.6080     0.4250 ca         1 13E      -0.130500
      8 C7           5.7220    -0.1000    -1.2600 ca         1 13E      -0.130500
      9 C8           6.3060     1.0250    -0.6890 ca         1 13E      -0.141000
     10 C9           0.1840    -0.7460     0.7320 c3         1 13E       0.176800
     11 N2          -1.0040    -0.4490    -0.0360 n7         1 13E      -0.794200
     12 C10         -2.2060    -1.0380     0.5200 c3         1 13E       0.025500
     13 C11         -3.4430    -0.3980    -0.1200 c3         1 13E      -0.044400
     14 C12         -3.4980     1.1030     0.1110 c3         1 13E       0.039700
     15 SD          -4.9400     1.8110    -0.7360 ss         1 13E      -0.390200
     16 C13         -4.7220     3.5550    -0.3210 c3         1 13E      -0.003000
     17 C           -2.3140    -2.5770     0.3680 c          1 13E       0.903600
     18 O           -1.6600    -3.1020    -0.5540 o          1 13E      -0.835800
     19 O1          -3.0840    -3.1580     1.1600 o          1 13E      -0.835800
     20 H1           1.1230     1.6910     1.0710 hn         1 13E       0.324800
     21 H2           2.1770     1.7740    -0.1520 hn         1 13E       0.324800
     22 H4           1.5520    -0.4310    -0.8810 h1         1 13E       0.064700
     23 H5           2.5560    -0.3340     1.9910 hc         1 13E       0.053200
     24 H6           2.6860    -1.6980     0.8900 hc         1 13E       0.053200
     25 H7           4.1070     1.5320     1.8350 ha         1 13E       0.131500
     26 H8           4.1110    -1.5080    -1.1750 ha         1 13E       0.131500
     27 H9           6.1670     2.4820     0.8800 ha         1 13E       0.122500
     28 H10          6.1750    -0.5660    -2.1260 ha         1 13E       0.122500
     29 H11          7.2140     1.4400    -1.1080 ha         1 13E       0.121000
     30 H12          0.3750    -1.8260     0.8250 h1         1 13E       0.027700
     31 H13          0.0370    -0.3750     1.7540 h1         1 13E       0.027700
     32 H14         -0.8800    -0.8310    -0.9670 hn         1 13E       0.362800
     33 H16         -2.2280    -0.7990     1.5910 h1         1 13E       0.036700
     34 H17         -3.4400    -0.6060    -1.1960 hc         1 13E       0.053700
     35 H18         -4.3400    -0.8700     0.2890 hc         1 13E       0.053700
     36 H19         -3.5730     1.3200     1.1800 h1         1 13E       0.058200
     37 H20         -2.5880     1.5720    -0.2630 h1         1 13E       0.058200
     38 H21         -5.5350     4.1120    -0.7830 h1         1 13E       0.046367
     39 H22         -4.7630     3.7110     0.7560 h1         1 13E       0.046367
     40 H23         -3.7770     3.9370    -0.7050 h1         1 13E       0.046367
@<TRIPOS>BOND
     1     1     2 1   
     2     1    20 1   
     3     1    21 1   
     4     2     3 1   
     5     2    10 1   
     6     2    22 1   
     7     3     4 1   
     8     3    23 1   
     9     3    24 1   
    10     4     5 ar  
    11     4     6 ar  
    12     5     7 ar  
    13     5    25 1   
    14     6     8 ar  
    15     6    26 1   
    16     7     9 ar  
    17     7    27 1   
    18     8     9 ar  
    19     8    28 1   
    20     9    29 1   
    21    10    11 1   
    22    10    30 1   
    23    10    31 1   
    24    11    12 1   
    25    11    32 1   
    26    12    13 1   
    27    12    17 1   
    28    12    33 1   
    29    13    14 1   
    30    13    34 1   
    31    13    35 1   
    32    14    15 1   
    33    14    36 1   
    34    14    37 1   
    35    15    16 1   
    36    16    38 1   
    37    16    39 1   
    38    16    40 1   
    39    17    18 1   
    40    17    19 1   
@<TRIPOS>SUBSTRUCTURE
     1 13E         1 TEMP              0 ****  ****    0 ROOT
