@<TRIPOS>MOLECULE
13F
   37    39     1     0     0
SMALL
abcg2


@<TRIPOS>ATOM
      1 C4          -0.2760    -0.0770    -1.3260 ca         1 13F       0.040000
      2 C14          3.0850     0.4580     1.2690 c6         1 13F       0.156300
      3 C5          -0.3180     0.9100    -0.3470 ca         1 13F      -0.354500
      4 C6          -3.0880    -0.3190     0.6640 ca         1 13F       0.226000
      5 C11         -4.1200    -0.5560    -0.2380 ca         1 13F      -0.107500
      6 C7          -2.4290    -1.3860     1.2650 ca         1 13F      -0.107500
      7 C8          -2.8090    -2.6880     0.9730 ca         1 13F      -0.101000
      8 C9          -3.8300    -2.9280     0.0630 ca         1 13F      -0.107000
      9 C10         -4.4800    -1.8610    -0.5410 ca         1 13F      -0.101000
     10 C12          0.7650     1.1210     0.5000 ca         1 13F       0.029000
     11 C13          1.8990     0.3450     0.3650 ca         1 13F      -0.176300
     12 N1           3.1140    -1.3590    -0.7540 ns         1 13F      -0.147000
     13 N2          -2.7200     1.0160     0.9770 nu         1 13F      -0.857100
     14 C3           0.8630    -0.8450    -1.4710 ca         1 13F      -0.189000
     15 C1           4.3440    -0.9230    -0.2970 c          1 13F       0.610000
     16 C2           1.9530    -0.6290    -0.6320 ca         1 13F       0.056000
     17 N            4.3050     0.1340     0.5480 n          1 13F      -0.400800
     18 C            5.5420     0.6070     1.1310 c3         1 13F       0.090300
     19 S           -1.7870     1.8540    -0.1250 sy         1 13F       1.145600
     20 O           -1.4560     3.1060     0.5340 o          1 13F      -0.530000
     21 O1          -2.5150     1.8580    -1.3810 o          1 13F      -0.530000
     22 H1          -1.1150    -0.2430    -1.9880 ha         1 13F       0.143000
     23 H2           3.1730     1.4740     1.6530 h1         1 13F       0.053700
     24 H3           2.9640    -0.2010     2.1390 h1         1 13F       0.053700
     25 H4          -4.6480     0.2740    -0.6860 ha         1 13F       0.128000
     26 H5          -1.6220    -1.2010     1.9630 ha         1 13F       0.128000
     27 H6          -2.2990    -3.5130     1.4520 ha         1 13F       0.119500
     28 H7          -4.1220    -3.9440    -0.1680 ha         1 13F       0.118000
     29 H8          -5.2840    -2.0410    -1.2430 ha         1 13F       0.119500
     30 H9           0.7310     1.8830     1.2680 ha         1 13F       0.134000
     31 H10          3.1540    -2.0800    -1.4600 hn         1 13F       0.172000
     32 H11         -2.3530     1.1320     1.9160 hn         1 13F       0.482000
     33 H12          0.9100    -1.6030    -2.2420 ha         1 13F       0.127000
     34 H13          5.8250     0.0370     2.0200 h1         1 13F       0.048033
     35 H14          6.3510     0.5500     0.4090 h1         1 13F       0.048033
     36 H15          5.4170     1.6500     1.4190 h1         1 13F       0.048033
     37 O2           5.3710    -1.4630    -0.6770 o          1 13F      -0.568000
@<TRIPOS>BOND
     1     1     3 ar  
     2     1    14 ar  
     3     1    22 1   
     4     2    11 1   
     5     2    17 1   
     6     2    23 1   
     7     2    24 1   
     8     3    10 ar  
     9     3    19 1   
    10     4     5 ar  
    11     4     6 ar  
    12     4    13 1   
    13     5     9 ar  
    14     5    25 1   
    15     6     7 ar  
    16     6    26 1   
    17     7     8 ar  
    18     7    27 1   
    19     8     9 ar  
    20     8    28 1   
    21     9    29 1   
    22    10    11 ar  
    23    10    30 1   
    24    11    16 ar  
    25    12    15 1   
    26    12    16 1   
    27    12    31 1   
    28    13    19 1   
    29    13    32 1   
    30    14    16 ar  
    31    14    33 1   
    32    15    17 1   
    33    15    37 2   
    34    17    18 1   
    35    18    34 1   
    36    18    35 1   
    37    18    36 1   
    38    19    20 2   
    39    19    21 2   
@<TRIPOS>SUBSTRUCTURE
     1 13F         1 TEMP              0 ****  ****    0 ROOT
