@<TRIPOS>MOLECULE
13F
   37    39     1     0     0
SMALL
No Charge or Current Charge


@<TRIPOS>ATOM
      1 C4          -0.2850     0.6640    -1.8880 ca         1 13F       0.040000
      2 C14          2.9320     0.4370     1.0260 c6         1 13F       0.156300
      3 C5          -0.4610     1.2090    -0.6000 ca         1 13F      -0.354500
      4 C6          -2.9450    -0.4370     0.8980 ca         1 13F       0.226000
      5 C11         -2.9860    -1.1380    -0.3250 ca         1 13F      -0.107500
      6 C7          -3.1490    -1.1450     2.0970 ca         1 13F      -0.107500
      7 C8          -3.3800    -2.5320     2.0800 ca         1 13F      -0.101000
      8 C9          -3.4130    -3.2230     0.8580 ca         1 13F      -0.107000
      9 C10         -3.2170    -2.5260    -0.3450 ca         1 13F      -0.101000
     10 C12          0.5810     1.1390     0.3450 ca         1 13F       0.029000
     11 C13          1.7980     0.5210     0.0040 ca         1 13F      -0.176300
     12 N1           3.1900    -0.6310    -1.5900 ns         1 13F      -0.147000
     13 N2          -2.7140     0.9380     0.9660 nu         1 13F      -0.857100
     14 C3           0.9330     0.0490    -2.2230 ca         1 13F      -0.189000
     15 C1           4.2840    -0.7720    -0.7680 c          1 13F       0.610000
     16 C2           1.9680    -0.0200    -1.2770 ca         1 13F       0.056000
     17 N            4.1610    -0.2410     0.5360 n          1 13F      -0.400800
     18 C            5.2950    -0.3550     1.4780 c3         1 13F       0.090300
     19 S           -2.0130     1.9820    -0.1480 sy         1 13F       1.145600
     20 O           -1.7470     3.1700     0.6660 o          1 13F      -0.530000
     21 O1          -2.9380     2.0010    -1.2850 o          1 13F      -0.530000
     22 H1          -1.0810     0.7120    -2.6300 ha         1 13F       0.143000
     23 H2           3.1960     1.4560     1.3430 h1         1 13F       0.053700
     24 H3           2.5660    -0.0960     1.9150 h1         1 13F       0.053700
     25 H4          -2.8470    -0.6190    -1.2670 ha         1 13F       0.128000
     26 H5          -3.1250    -0.6200     3.0480 ha         1 13F       0.128000
     27 H6          -3.5340    -3.0690     3.0140 ha         1 13F       0.119500
     28 H7          -3.5920    -4.2970     0.8430 ha         1 13F       0.118000
     29 H8          -3.2460    -3.0580    -1.2930 ha         1 13F       0.119500
     30 H9           0.4480     1.5560     1.3420 ha         1 13F       0.134000
     31 H10          3.2780    -1.0100    -2.5230 hn         1 13F       0.172000
     32 H11         -2.5870     1.3570     1.8770 hn         1 13F       0.482000
     33 H12          1.0690    -0.3720    -3.2160 ha         1 13F       0.127000
     34 H13          5.5370    -1.4130     1.6410 h1         1 13F       0.048033
     35 H14          6.1740     0.1560     1.0630 h1         1 13F       0.048033
     36 H15          5.0410     0.1040     2.4420 h1         1 13F       0.048033
     37 O2           5.3050    -1.3270    -1.1510 o          1 13F      -0.568000
@<TRIPOS>BOND
     1     1     3 ar  
     2     1    14 ar  
     3     1    22 1   
     4     2    11 1   
     5     2    17 1   
     6     2    23 1   
     7     2    24 1   
     8     3    10 ar  
     9     3    19 1   
    10     4     5 ar  
    11     4     6 ar  
    12     4    13 1   
    13     5     9 ar  
    14     5    25 1   
    15     6     7 ar  
    16     6    26 1   
    17     7     8 ar  
    18     7    27 1   
    19     8     9 ar  
    20     8    28 1   
    21     9    29 1   
    22    10    11 ar  
    23    10    30 1   
    24    11    16 ar  
    25    12    15 1   
    26    12    16 1   
    27    12    31 1   
    28    13    19 1   
    29    13    32 1   
    30    14    16 ar  
    31    14    33 1   
    32    15    17 1   
    33    15    37 2   
    34    17    18 1   
    35    18    34 1   
    36    18    35 1   
    37    18    36 1   
    38    19    20 2   
    39    19    21 2   
@<TRIPOS>SUBSTRUCTURE
     1 13F         1 TEMP              0 ****  ****    0 ROOT
