@<TRIPOS>MOLECULE
13H
   52    51     1     0     0
SMALL
bcc


@<TRIPOS>ATOM
      1 C18         10.2440     2.1350     0.0900 c3         1 13H      -0.088100
      2 C17          8.7760     2.3090    -0.2740 c3         1 13H      -0.075400
      3 C16          7.9440     1.0660     0.0200 c3         1 13H      -0.076400
      4 C15          6.4770     1.2240    -0.3590 c3         1 13H      -0.073400
      5 C14          5.6600    -0.0320    -0.0830 c3         1 13H      -0.107400
      6 C13          4.2090     0.0640    -0.5600 c3         1 13H       0.182300
      7 O3           3.5180     1.1360     0.0370 oh         1 13H      -0.587800
      8 C12          3.5090    -1.2540    -0.3960 c2         1 13H      -0.220200
      9 C11          2.3150    -1.4400     0.1720 ce         1 13H      -0.103000
     10 C10          1.6940    -2.7490     0.2950 ce         1 13H      -0.157000
     11 C9           0.4790    -3.0090     0.7930 c2         1 13H      -0.130200
     12 C8          -0.5250    -2.0300     1.3100 c3         1 13H      -0.051200
     13 C7          -1.7260    -1.8960     0.3690 c3         1 13H      -0.072400
     14 C6          -2.8160    -0.9910     0.9280 c3         1 13H      -0.076400
     15 C5          -4.0050    -0.8330    -0.0120 c3         1 13H      -0.075400
     16 C4          -5.1110     0.0440     0.5630 c3         1 13H      -0.079400
     17 C3          -6.3000     0.2120    -0.3750 c3         1 13H      -0.054400
     18 C2          -7.3950     1.0830     0.2210 c3         1 13H      -0.204400
     19 C1          -8.6380     1.3120    -0.6570 c          1 13H       0.927600
     20 O1          -9.4920     2.1000    -0.1980 o          1 13H      -0.848800
     21 O2          -8.7080     0.7040    -1.7430 o          1 13H      -0.848800
     22 H118        10.3650     1.9200     1.1530 hc         1 13H       0.029700
     23 H218        10.6910     1.3080    -0.4640 hc         1 13H       0.029700
     24 H318        10.8230     3.0320    -0.1340 hc         1 13H       0.029700
     25 H117         8.3590     3.1620     0.2710 hc         1 13H       0.038200
     26 H217         8.6900     2.5570    -1.3360 hc         1 13H       0.038200
     27 H116         8.3700     0.2120    -0.5190 hc         1 13H       0.035200
     28 H216         8.0230     0.8200     1.0850 hc         1 13H       0.035200
     29 H115         6.0510     2.0730     0.1820 hc         1 13H       0.044700
     30 H215         6.4050     1.4730    -1.4240 hc         1 13H       0.044700
     31 H114         6.1280    -0.8850    -0.5850 hc         1 13H       0.041700
     32 H214         5.6770    -0.2660     0.9880 hc         1 13H       0.041700
     33 H13          4.2340     0.2970    -1.6330 h1         1 13H       0.076700
     34 H3           3.5450     1.0170     0.9930 ho         1 13H       0.400000
     35 H12          4.0470    -2.1120    -0.7940 ha         1 13H       0.118000
     36 H11          1.7710    -0.5820     0.5540 ha         1 13H       0.133000
     37 H10          2.2830    -3.5880    -0.0660 ha         1 13H       0.113000
     38 H9           0.1570    -4.0470     0.8000 ha         1 13H       0.115000
     39 H18C        -0.8820    -2.3700     2.2880 hc         1 13H       0.044700
     40 H28C        -0.0820    -1.0440     1.4710 hc         1 13H       0.044700
     41 H17C        -1.3830    -1.5090    -0.5960 hc         1 13H       0.039700
     42 H27C        -2.1440    -2.8880     0.1690 hc         1 13H       0.039700
     43 H16C        -3.1620    -1.3940     1.8870 hc         1 13H       0.032700
     44 H26C        -2.3940    -0.0040     1.1490 hc         1 13H       0.032700
     45 H15C        -3.6640    -0.4100    -0.9640 hc         1 13H       0.034700
     46 H25C        -4.4130    -1.8210    -0.2500 hc         1 13H       0.034700
     47 H14C        -5.4510    -0.3850     1.5120 hc         1 13H       0.023700
     48 H24C        -4.6990     1.0290     0.8110 hc         1 13H       0.023700
     49 H13C        -5.9570     0.6450    -1.3200 hc         1 13H       0.037700
     50 H23C        -6.7040    -0.7730    -0.6260 hc         1 13H       0.037700
     51 H12C        -7.7260     0.6500     1.1730 hc         1 13H       0.014200
     52 H22C        -6.9800     2.0610     0.4880 hc         1 13H       0.014200
@<TRIPOS>BOND
     1     1     2 1   
     2     1    22 1   
     3     1    23 1   
     4     1    24 1   
     5     2     3 1   
     6     2    25 1   
     7     2    26 1   
     8     3     4 1   
     9     3    27 1   
    10     3    28 1   
    11     4     5 1   
    12     4    29 1   
    13     4    30 1   
    14     5     6 1   
    15     5    31 1   
    16     5    32 1   
    17     6     7 1   
    18     6     8 1   
    19     6    33 1   
    20     7    34 1   
    21     8     9 2   
    22     8    35 1   
    23     9    10 1   
    24     9    36 1   
    25    10    11 2   
    26    10    37 1   
    27    11    12 1   
    28    11    38 1   
    29    12    13 1   
    30    12    39 1   
    31    12    40 1   
    32    13    14 1   
    33    13    41 1   
    34    13    42 1   
    35    14    15 1   
    36    14    43 1   
    37    14    44 1   
    38    15    16 1   
    39    15    45 1   
    40    15    46 1   
    41    16    17 1   
    42    16    47 1   
    43    16    48 1   
    44    17    18 1   
    45    17    49 1   
    46    17    50 1   
    47    18    19 1   
    48    18    51 1   
    49    18    52 1   
    50    19    20 1   
    51    19    21 1   
@<TRIPOS>SUBSTRUCTURE
     1 13H         1 TEMP              0 ****  ****    0 ROOT
