@<TRIPOS>MOLECULE
13H
   52    51     1     0     0
SMALL
No Charge or Current Charge


@<TRIPOS>ATOM
      1 C18          9.0360     3.0040    -1.4280 c3         1 13H      -0.088100
      2 C17          7.6760     2.8810    -0.7130 c3         1 13H      -0.075400
      3 C16          7.1590     1.4280    -0.6420 c3         1 13H      -0.076400
      4 C15          5.7960     1.3050     0.0740 c3         1 13H      -0.073400
      5 C14          5.2790    -0.1520     0.1440 c3         1 13H      -0.107400
      6 C13          3.8930    -0.2990     0.8170 c3         1 13H       0.205500
      7 O3           3.9830     0.0620     2.1920 oh         1 13H      -0.650000
      8 C12          3.3630    -1.7130     0.7490 c2         1 13H      -0.270200
      9 C11          2.1030    -2.0940     1.0520 ce         1 13H      -0.153000
     10 C10          1.6430    -3.4850     0.9590 ce         1 13H      -0.207000
     11 C9           0.3920    -3.9110     1.2490 c2         1 13H      -0.180200
     12 C8          -0.7800    -3.0710     1.7220 c3         1 13H      -0.051200
     13 C7          -1.4770    -2.3260     0.5640 c3         1 13H      -0.072400
     14 C6          -2.6690    -1.4610     1.0290 c3         1 13H      -0.076400
     15 C5          -3.3660    -0.7170    -0.1310 c3         1 13H      -0.075400
     16 C4          -4.5580     0.1480     0.3350 c3         1 13H      -0.079400
     17 C3          -5.2560     0.8920    -0.8250 c3         1 13H      -0.054400
     18 C2          -6.4520     1.7600    -0.3610 c3         1 13H      -0.204400
     19 C1          -7.0960     2.4670    -1.5680 c          1 13H       0.717000
     20 O1          -6.6600     3.5600    -1.8960 o          1 13H      -0.743500
     21 O2          -7.9820     1.8840    -2.1730 o          1 13H      -0.743500
     22 H118         9.8030     2.4200    -0.9050 hc         1 13H       0.029700
     23 H218         8.9660     2.6410    -2.4600 hc         1 13H       0.029700
     24 H318         9.3610     4.0510    -1.4540 hc         1 13H       0.029700
     25 H117         7.7700     3.2850     0.3030 hc         1 13H       0.038200
     26 H217         6.9410     3.5040    -1.2380 hc         1 13H       0.038200
     27 H116         7.0690     1.0280    -1.6590 hc         1 13H       0.035200
     28 H216         7.8980     0.8090    -0.1180 hc         1 13H       0.035200
     29 H115         5.8890     1.7090     1.0900 hc         1 13H       0.044700
     30 H215         5.0570     1.9240    -0.4500 hc         1 13H       0.044700
     31 H114         5.2120    -0.5470    -0.8780 hc         1 13H       0.041700
     32 H214         6.0120    -0.7740     0.6740 hc         1 13H       0.041700
     33 H13          3.1880     0.3670     0.2960 h1         1 13H       0.076700
     34 H3           4.3230    -0.7320     2.6560 ho         1 13H       0.439000
     35 H12          4.0920    -2.4540     0.4150 ha         1 13H       0.168000
     36 H11          1.3800    -1.3450     1.3820 ha         1 13H       0.183000
     37 H10          2.3850    -4.2150     0.6270 ha         1 13H       0.163000
     38 H9           0.1520    -4.9710     1.1440 ha         1 13H       0.165000
     39 H18C        -1.5140    -3.7170     2.2200 hc         1 13H       0.044700
     40 H28C        -0.4500    -2.3480     2.4780 hc         1 13H       0.044700
     41 H17C        -0.7470    -1.6870     0.0520 hc         1 13H       0.039700
     42 H27C        -1.8290    -3.0590    -0.1730 hc         1 13H       0.039700
     43 H16C        -3.4010    -2.1010     1.5380 hc         1 13H       0.032700
     44 H26C        -2.3160    -0.7290     1.7660 hc         1 13H       0.032700
     45 H15C        -2.6340    -0.0770    -0.6390 hc         1 13H       0.034700
     46 H25C        -3.7180    -1.4490    -0.8680 hc         1 13H       0.034700
     47 H14C        -5.2890    -0.4920     0.8440 hc         1 13H       0.023700
     48 H24C        -4.2050     0.8800     1.0720 hc         1 13H       0.023700
     49 H13C        -4.5240     1.5310    -1.3350 hc         1 13H       0.037700
     50 H23C        -5.6070     0.1600    -1.5630 hc         1 13H       0.037700
     51 H12C        -7.1650     1.0650     0.1010 hc         1 13H       0.014200
     52 H22C        -6.0360     2.4950     0.3380 hc         1 13H       0.014200
@<TRIPOS>BOND
     1     1     2 1   
     2     1    22 1   
     3     1    23 1   
     4     1    24 1   
     5     2     3 1   
     6     2    25 1   
     7     2    26 1   
     8     3     4 1   
     9     3    27 1   
    10     3    28 1   
    11     4     5 1   
    12     4    29 1   
    13     4    30 1   
    14     5     6 1   
    15     5    31 1   
    16     5    32 1   
    17     6     7 1   
    18     6     8 1   
    19     6    33 1   
    20     7    34 1   
    21     8     9 2   
    22     8    35 1   
    23     9    10 1   
    24     9    36 1   
    25    10    11 2   
    26    10    37 1   
    27    11    12 1   
    28    11    38 1   
    29    12    13 1   
    30    12    39 1   
    31    12    40 1   
    32    13    14 1   
    33    13    41 1   
    34    13    42 1   
    35    14    15 1   
    36    14    43 1   
    37    14    44 1   
    38    15    16 1   
    39    15    45 1   
    40    15    46 1   
    41    16    17 1   
    42    16    47 1   
    43    16    48 1   
    44    17    18 1   
    45    17    49 1   
    46    17    50 1   
    47    18    19 1   
    48    18    51 1   
    49    18    52 1   
    50    19    20 1   
    51    19    21 1   
@<TRIPOS>SUBSTRUCTURE
     1 13H         1 TEMP              0 ****  ****    0 ROOT
