@<TRIPOS>MOLECULE
13I
   54    55     1     0     0
SMALL
No Charge or Current Charge


@<TRIPOS>ATOM
      1 C01          0.6530    -3.6790     0.6430 ca         1 13I       0.208100
      2 C02         -0.5380    -4.4080     0.5690 ca         1 13I      -0.250000
      3 C03         -1.7160    -3.7840     0.1540 ca         1 13I       0.214100
      4 C04         -1.7100    -2.4250    -0.2120 ca         1 13I      -0.014000
      5 C05         -0.5070    -1.6800    -0.1560 ca         1 13I       0.061700
      6 C06          0.6820    -2.3150     0.2930 ca         1 13I      -0.218600
      7 C07          1.9570    -1.5450     0.4640 c          1 13I       0.630700
      8 O08          2.0680    -0.6620     1.3010 o          1 13I      -0.584100
      9 N09          3.0050    -1.9450    -0.3330 ns         1 13I      -0.497900
     10 C10          4.3910    -1.4700    -0.2230 c3         1 13I       0.108000
     11 C11          4.7010    -0.1810    -1.0250 c3         1 13I      -0.058200
     12 C12          4.2510     1.1070    -0.3570 c2         1 13I      -0.207200
     13 C13          3.8400     2.2130    -1.0010 c2         1 13I      -0.226200
     14 C14          3.3670     3.4950    -0.3340 c3         1 13I      -0.040200
     15 C15          1.8290     3.6440    -0.3890 c3         1 13I      -0.069400
     16 C16          1.1000     2.5520     0.4310 c3         1 13I      -0.078400
     17 C17         -0.3660     2.2730    -0.0020 c3         1 13I      -0.192700
     18 C18         -0.7670     0.8420     0.3980 c          1 13I       0.602100
     19 C19         -0.4810    -0.2350    -0.6570 c3         1 13I      -0.154100
     20 O20         -1.2160     0.5730     1.5080 o          1 13I      -0.503100
     21 C21         -1.3860     3.3350     0.4440 c3         1 13I       0.403300
     22 O22         -1.4880     3.3600     1.8570 oh         1 13I      -0.678000
     23 O23         -2.6410     2.9500    -0.1150 os         1 13I      -0.498000
     24 C24         -3.7030     3.9060     0.0410 c3         1 13I       0.169600
     25 C25         -4.9440     3.3310    -0.6590 c3         1 13I      -0.093100
     26 Cl          -3.2270    -1.6730    -0.7380 cl         1 13I      -0.195000
     27 O27         -2.8670    -4.5140     0.1030 oh         1 13I      -0.524100
     28 O28          1.7780    -4.3050     1.0890 oh         1 13I      -0.525100
     29 H02         -0.5630    -5.4590     0.8460 ha         1 13I       0.137000
     30 H28          1.5500    -5.2340     1.3040 ho         1 13I       0.475000
     31 H27         -3.5810    -3.9170    -0.2090 ho         1 13I       0.485000
     32 H191         0.4620     0.0170    -1.1540 hc         1 13I       0.082200
     33 H192        -1.1640    -0.0560    -1.4940 hc         1 13I       0.082200
     34 H09          2.8100    -2.7130    -0.9640 hn         1 13I       0.312500
     35 H101         4.6450    -1.3220     0.8360 h1         1 13I       0.053200
     36 H102         5.0390    -2.2730    -0.6000 h1         1 13I       0.053200
     37 H111         5.7890    -0.1340    -1.1530 hc         1 13I       0.047700
     38 H112         4.2810    -0.2690    -2.0350 hc         1 13I       0.047700
     39 H12          4.2680     1.0830     0.7350 ha         1 13I       0.179000
     40 H13          3.8170     2.2390    -2.0930 ha         1 13I       0.160000
     41 H141         3.6890     3.5260     0.7150 hc         1 13I       0.048200
     42 H142         3.8290     4.3610    -0.8240 hc         1 13I       0.048200
     43 H151         1.5390     4.6330    -0.0150 hc         1 13I       0.039200
     44 H152         1.5170     3.5980    -1.4400 hc         1 13I       0.039200
     45 H161         1.6550     1.6190     0.3100 hc         1 13I       0.066700
     46 H162         1.1520     2.7900     1.5010 hc         1 13I       0.066700
     47 H17         -0.3420     2.2810    -1.0980 hc         1 13I       0.072700
     48 H21         -1.0770     4.3260     0.0820 h2         1 13I       0.059700
     49 H22         -1.6600     2.4240     2.1010 ho         1 13I       0.474000
     50 H241        -3.9320     4.0780     1.1010 h1         1 13I       0.027700
     51 H242        -3.4350     4.8660    -0.4200 h1         1 13I       0.027700
     52 H251        -5.7860     4.0270    -0.5700 hc         1 13I       0.041367
     53 H252        -4.7450     3.1660    -1.7250 hc         1 13I       0.041367
     54 H253        -5.2360     2.3770    -0.2050 hc         1 13I       0.041367
@<TRIPOS>BOND
     1     1     2 ar  
     2     1     6 ar  
     3     1    28 1   
     4     2     3 ar  
     5     2    29 1   
     6     3     4 ar  
     7     3    27 1   
     8     4     5 ar  
     9     4    26 1   
    10     5     6 ar  
    11     5    19 1   
    12     6     7 1   
    13     7     8 2   
    14     7     9 1   
    15     9    10 1   
    16     9    34 1   
    17    10    11 1   
    18    10    35 1   
    19    10    36 1   
    20    11    12 1   
    21    11    37 1   
    22    11    38 1   
    23    12    13 2   
    24    12    39 1   
    25    13    14 1   
    26    13    40 1   
    27    14    15 1   
    28    14    41 1   
    29    14    42 1   
    30    15    16 1   
    31    15    43 1   
    32    15    44 1   
    33    16    17 1   
    34    16    45 1   
    35    16    46 1   
    36    17    18 1   
    37    17    21 1   
    38    17    47 1   
    39    18    19 1   
    40    18    20 2   
    41    19    32 1   
    42    19    33 1   
    43    21    22 1   
    44    21    23 1   
    45    21    48 1   
    46    22    49 1   
    47    23    24 1   
    48    24    25 1   
    49    24    50 1   
    50    24    51 1   
    51    25    52 1   
    52    25    53 1   
    53    25    54 1   
    54    27    31 1   
    55    28    30 1   
@<TRIPOS>SUBSTRUCTURE
     1 13I         1 TEMP              0 ****  ****    0 ROOT
