@<TRIPOS>MOLECULE
13I
   54    55     1     0     0
SMALL
bcc


@<TRIPOS>ATOM
      1 C01          0.5920    -3.6110     0.7180 ca         1 13I       0.208100
      2 C02         -0.6100    -4.2910     0.6040 ca         1 13I      -0.268000
      3 C03         -1.7240    -3.6520     0.0750 ca         1 13I       0.214100
      4 C04         -1.6090    -2.3240    -0.3360 ca         1 13I      -0.105600
      5 C05         -0.4040    -1.6370    -0.2430 ca         1 13I       0.061700
      6 C06          0.7050    -2.2860     0.2870 ca         1 13I      -0.218600
      7 C07          2.0050    -1.5680     0.5280 c          1 13I       0.697700
      8 O08          2.1570    -0.8510     1.5050 o          1 13I      -0.584100
      9 N09          2.9550    -1.8080    -0.3850 ns         1 13I      -0.564900
     10 C10          4.3480    -1.4390    -0.2340 c3         1 13I       0.108000
     11 C11          4.7750    -0.1700    -0.9700 c3         1 13I      -0.058200
     12 C12          4.2880     1.1010    -0.3490 c2         1 13I      -0.157200
     13 C13          3.7310     2.1140    -1.0070 c2         1 13I      -0.176200
     14 C14          3.2700     3.3980    -0.3880 c3         1 13I      -0.040200
     15 C15          1.7470     3.5500    -0.4740 c3         1 13I      -0.069400
     16 C16          1.0340     2.5040     0.3780 c3         1 13I      -0.078400
     17 C17         -0.4140     2.2270    -0.0550 c3         1 13I      -0.192700
     18 C18         -0.7360     0.8010     0.3240 c          1 13I       0.602100
     19 C19         -0.2980    -0.2200    -0.7050 c3         1 13I      -0.154100
     20 O20         -1.2550     0.4860     1.3700 o          1 13I      -0.503100
     21 C21         -1.4210     3.2380     0.4910 c3         1 13I       0.356900
     22 O22         -1.4250     3.3300     1.8820 oh         1 13I      -0.615800
     23 O23         -2.6620     2.8670    -0.0290 os         1 13I      -0.451600
     24 C24         -3.6860     3.8360     0.1090 c3         1 13I       0.146400
     25 C25         -4.9370     3.3160    -0.5630 c3         1 13I      -0.093100
     26 CL          -3.0250    -1.5430    -0.9720 cl         1 13I      -0.103400
     27 O27         -2.8590    -4.3540    -0.0110 oh         1 13I      -0.485100
     28 O28          1.6900    -4.1780     1.2440 oh         1 13I      -0.486100
     29 H02         -0.6970    -5.3230     0.9260 ha         1 13I       0.155000
     30 H28          1.4990    -5.0730     1.5500 ho         1 13I       0.436000
     31 H27         -3.5640    -3.8340    -0.4180 ho         1 13I       0.446000
     32 H191         0.7200     0.0200    -1.0220 hc         1 13I       0.082200
     33 H192        -0.9070    -0.0460    -1.5980 hc         1 13I       0.082200
     34 H09          2.7230    -2.4200    -1.1510 hn         1 13I       0.312500
     35 H101         4.5700    -1.3420     0.8300 h1         1 13I       0.053200
     36 H102         4.9390    -2.2770    -0.6050 h1         1 13I       0.053200
     37 H111         5.8700    -0.1680    -0.9590 hc         1 13I       0.047700
     38 H112         4.4780    -0.2280    -2.0200 hc         1 13I       0.047700
     39 H12          4.4480     1.1970     0.7230 ha         1 13I       0.129000
     40 H13          3.5620     2.0180    -2.0790 ha         1 13I       0.110000
     41 H141         3.5910     3.4520     0.6560 hc         1 13I       0.048200
     42 H142         3.7370     4.2430    -0.9030 hc         1 13I       0.048200
     43 H151         1.4570     4.5590    -0.1720 hc         1 13I       0.039200
     44 H152         1.4420     3.4420    -1.5200 hc         1 13I       0.039200
     45 H161         1.6100     1.5770     0.3190 hc         1 13I       0.066700
     46 H162         1.0560     2.7890     1.4310 hc         1 13I       0.066700
     47 H17         -0.4520     2.2920    -1.1480 hc         1 13I       0.072700
     48 H21         -1.1480     4.2420     0.1350 h2         1 13I       0.059700
     49 H22         -1.5280     2.4380     2.2390 ho         1 13I       0.435000
     50 H241        -3.8900     4.0430     1.1650 h1         1 13I       0.027700
     51 H242        -3.3720     4.7820    -0.3500 h1         1 13I       0.027700
     52 H251        -5.7360     4.0530    -0.4730 hc         1 13I       0.041367
     53 H252        -4.7730     3.1270    -1.6240 hc         1 13I       0.041367
     54 H253        -5.2810     2.3930    -0.0970 hc         1 13I       0.041367
@<TRIPOS>BOND
     1     1     2 ar  
     2     1     6 ar  
     3     1    28 1   
     4     2     3 ar  
     5     2    29 1   
     6     3     4 ar  
     7     3    27 1   
     8     4     5 ar  
     9     4    26 1   
    10     5     6 ar  
    11     5    19 1   
    12     6     7 1   
    13     7     8 2   
    14     7     9 1   
    15     9    10 1   
    16     9    34 1   
    17    10    11 1   
    18    10    35 1   
    19    10    36 1   
    20    11    12 1   
    21    11    37 1   
    22    11    38 1   
    23    12    13 2   
    24    12    39 1   
    25    13    14 1   
    26    13    40 1   
    27    14    15 1   
    28    14    41 1   
    29    14    42 1   
    30    15    16 1   
    31    15    43 1   
    32    15    44 1   
    33    16    17 1   
    34    16    45 1   
    35    16    46 1   
    36    17    18 1   
    37    17    21 1   
    38    17    47 1   
    39    18    19 1   
    40    18    20 2   
    41    19    32 1   
    42    19    33 1   
    43    21    22 1   
    44    21    23 1   
    45    21    48 1   
    46    22    49 1   
    47    23    24 1   
    48    24    25 1   
    49    24    50 1   
    50    24    51 1   
    51    25    52 1   
    52    25    53 1   
    53    25    54 1   
    54    27    31 1   
    55    28    30 1   
@<TRIPOS>SUBSTRUCTURE
     1 13I         1 TEMP              0 ****  ****    0 ROOT
