@<TRIPOS>MOLECULE
13J
   71    75     1     0     0
SMALL
No Charge or Current Charge


@<TRIPOS>ATOM
      1 C4          -7.2280     2.0720    -0.8730 ca         1 13J      -0.083500
      2 C7          -6.9340    -0.2320     0.6920 ca         1 13J      -0.139500
      3 C6          -5.9570     1.4930    -0.7050 ca         1 13J      -0.139500
      4 C9           4.6120    -3.6750    -1.5520 ca         1 13J       0.199900
      5 C13         -8.3620     1.5050    -0.2620 ca         1 13J      -0.093300
      6 C20          5.1620     2.7050    -1.8950 c6         1 13J      -0.099400
      7 C21          4.1460     1.5370    -1.8020 c6         1 13J      -0.087400
      8 C8          -0.8460    -0.8150    -0.0830 ca         1 13J      -0.030000
      9 C18         -3.2610    -0.0590    -0.1600 c          1 13J       0.618700
     10 C16          3.6840    -1.7420    -0.7710 ca         1 13J       0.163500
     11 C19          6.7070     2.6190     1.3000 c          1 13J       0.602100
     12 C26        -10.7130     1.1880    -1.1770 c3         1 13J      -0.084100
     13 C1          -1.4390    -2.9310     1.6540 ca         1 13J      -0.122000
     14 C2          -0.1180    -2.7240     1.2310 ca         1 13J      -0.090000
     15 C3          -2.4690    -2.0880     1.2060 ca         1 13J      -0.083000
     16 C5          -8.2040     0.3460     0.5240 ca         1 13J      -0.083500
     17 C10          2.5060    -2.4040    -0.5680 ca         1 13J      -0.380900
     18 C11          0.1850    -1.6830     0.3330 ca         1 13J      -0.104900
     19 C12         -2.1840    -1.0090     0.3340 ca         1 13J      -0.157600
     20 C14         -5.7990     0.3310     0.0810 ca         1 13J      -0.031000
     21 C15          1.5680    -1.4230    -0.0750 cc         1 13J       0.427500
     22 C17          2.4090    -3.7440    -0.9320 ca         1 13J       0.457900
     23 C22          5.1970     3.5160    -0.5770 c6         1 13J       0.096000
     24 C23          4.4810     1.5310     0.7260 c6         1 13J       0.078000
     25 C24          4.4260     0.6560    -0.5540 c6         1 13J       0.082300
     26 C25          8.9410     3.7830     2.0180 c3         1 13J      -0.077100
     27 C27        -10.3230     2.6440     0.8880 c3         1 13J      -0.084100
     28 C28          7.6970     3.7860     1.1000 c3         1 13J      -0.152400
     29 C29         -9.7400     2.1450    -0.4530 c3         1 13J      -0.013400
     30 N30          4.7740    -2.3620    -1.2640 nb         1 13J      -0.225000
     31 N31          3.4720    -4.3970    -1.4210 nb         1 13J      -0.311000
     32 N32          2.1090    -0.2000    -0.0220 nd         1 13J      -0.514100
     33 N33          3.4200    -0.4280    -0.4310 na         1 13J      -0.015100
     34 N34          5.4870     2.6220     0.5790 n          1 13J      -0.411800
     35 N35          1.2680    -4.4600    -0.8750 nv         1 13J      -1.070900
     36 N36         -4.5490    -0.3140     0.3010 ns         1 13J      -0.145000
     37 O37         -2.9880     0.8650    -0.9190 o          1 13J      -0.571100
     38 O38          6.9570     1.7160     2.0890 o          1 13J      -0.594100
     39 H1          -7.3260     2.9670    -1.4830 ha         1 13J       0.112500
     40 H2          -6.8370    -1.1270     1.3030 ha         1 13J       0.124000
     41 H3          -5.1130     1.9670    -1.1940 ha         1 13J       0.124000
     42 H4           5.4810    -4.1990    -1.9480 h5         1 13J       0.048100
     43 H5           6.1650     2.3100    -2.1080 hc         1 13J       0.052200
     44 H6           4.8990     3.3660    -2.7320 hc         1 13J       0.052200
     45 H7           3.1260     1.9430    -1.7510 hc         1 13J       0.061200
     46 H8           4.1950     0.9250    -2.7140 hc         1 13J       0.061200
     47 H9          -0.5980     0.0120    -0.7470 ha         1 13J       0.147000
     48 H10        -11.6670     1.6890    -1.3790 hc         1 13J       0.034533
     49 H11        -10.2890     0.8650    -2.1360 hc         1 13J       0.034533
     50 H12        -10.9160     0.2960    -0.5730 hc         1 13J       0.034533
     51 H13         -1.6650    -3.7450     2.3400 ha         1 13J       0.121000
     52 H14          0.6740    -3.3680     1.6100 ha         1 13J       0.126000
     53 H15         -3.4790    -2.2830     1.5600 ha         1 13J       0.118000
     54 H16         -9.0650    -0.1100     1.0070 ha         1 13J       0.112500
     55 H17          5.9300     4.3270    -0.6690 h1         1 13J       0.054200
     56 H18          4.2190     3.9920    -0.4180 h1         1 13J       0.054200
     57 H19          3.4950     1.9810     0.9080 h1         1 13J       0.078200
     58 H20          4.7080     0.8960     1.5930 h1         1 13J       0.078200
     59 H21          5.4160     0.1930    -0.6770 h1         1 13J       0.095700
     60 H22          8.6450     3.8310     3.0730 hc         1 13J       0.042033
     61 H23          9.5360     2.8750     1.8650 hc         1 13J       0.042033
     62 H24          9.5780     4.6490     1.8020 hc         1 13J       0.042033
     63 H25         -9.6270     3.3380     1.3740 hc         1 13J       0.034533
     64 H26        -11.2700     3.1710     0.7250 hc         1 13J       0.034533
     65 H27        -10.5110     1.8090     1.5740 hc         1 13J       0.034533
     66 H28          7.9900     3.8010     0.0440 hc         1 13J       0.055200
     67 H29          7.1400     4.7260     1.1870 hc         1 13J       0.055200
     68 H30         -9.6330     3.0280    -1.0950 hc         1 13J       0.049700
     69 H31          0.3910    -3.9630    -0.7550 hn         1 13J       0.502000
     70 H32          1.2300    -5.3440    -1.3760 hn         1 13J       0.502000
     71 H33         -4.6120    -1.1140     0.9150 hn         1 13J       0.151000
@<TRIPOS>BOND
     1     1     3 ar  
     2     1     5 ar  
     3     1    39 1   
     4     2    16 ar  
     5     2    20 ar  
     6     2    40 1   
     7     3    20 ar  
     8     3    41 1   
     9     4    30 ar  
    10     4    31 ar  
    11     4    42 1   
    12     5    16 ar  
    13     5    29 1   
    14     6     7 1   
    15     6    23 1   
    16     6    43 1   
    17     6    44 1   
    18     7    25 1   
    19     7    45 1   
    20     7    46 1   
    21     8    18 ar  
    22     8    19 ar  
    23     8    47 1   
    24     9    19 1   
    25     9    36 1   
    26     9    37 2   
    27    10    17 ar  
    28    10    30 ar  
    29    10    33 1   
    30    11    28 1   
    31    11    34 1   
    32    11    38 2   
    33    12    29 1   
    34    12    48 1   
    35    12    49 1   
    36    12    50 1   
    37    13    14 ar  
    38    13    15 ar  
    39    13    51 1   
    40    14    18 ar  
    41    14    52 1   
    42    15    19 ar  
    43    15    53 1   
    44    16    54 1   
    45    17    21 1   
    46    17    22 ar  
    47    18    21 1   
    48    20    36 1   
    49    21    32 2   
    50    22    31 ar  
    51    22    35 1   
    52    23    34 1   
    53    23    55 1   
    54    23    56 1   
    55    24    25 1   
    56    24    34 1   
    57    24    57 1   
    58    24    58 1   
    59    25    33 1   
    60    25    59 1   
    61    26    28 1   
    62    26    60 1   
    63    26    61 1   
    64    26    62 1   
    65    27    29 1   
    66    27    63 1   
    67    27    64 1   
    68    27    65 1   
    69    28    66 1   
    70    28    67 1   
    71    29    68 1   
    72    32    33 1   
    73    35    69 1   
    74    35    70 1   
    75    36    71 1   
@<TRIPOS>SUBSTRUCTURE
     1 13J         1 TEMP              0 ****  ****    0 ROOT
