@<TRIPOS>MOLECULE
13J
   71    75     1     0     0
SMALL
abcg2


@<TRIPOS>ATOM
      1 C4          -7.0620     2.2680     0.1430 ca         1 13J      -0.083500
      2 C7          -6.7040    -0.4510    -0.0850 ca         1 13J      -0.139500
      3 C6          -5.8400     1.7110     0.5000 ca         1 13J      -0.139500
      4 C9           4.4550    -3.4620    -1.4480 ca         1 13J       0.199900
      5 C13         -8.1190     1.4980    -0.3280 ca         1 13J      -0.093300
      6 C20          4.3620     3.0670    -1.6210 c6         1 13J      -0.099400
      7 C21          3.4320     1.8640    -1.4860 c6         1 13J      -0.087400
      8 C8          -0.8830    -0.6490     0.5600 ca         1 13J      -0.030000
      9 C18         -3.2040     0.1820     0.7310 c          1 13J       0.618700
     10 C16          3.4510    -1.6490    -0.7110 ca         1 13J       0.163500
     11 C19          6.7910     2.3210     0.6850 c          1 13J       0.602100
     12 C26         -9.6850     1.9700    -2.2260 c3         1 13J      -0.084100
     13 C1          -1.3340    -2.6590     2.4170 ca         1 13J      -0.122000
     14 C2          -0.0860    -2.5270     1.8290 ca         1 13J      -0.090000
     15 C3          -2.3650    -1.8010     2.0660 ca         1 13J      -0.083000
     16 C5          -7.9140     0.1220    -0.4290 ca         1 13J      -0.083500
     17 C10          2.3310    -2.3650    -0.2810 ca         1 13J      -0.380900
     18 C11          0.1460    -1.5260     0.8850 ca         1 13J      -0.104900
     19 C12         -2.1420    -0.7910     1.1320 ca         1 13J      -0.157600
     20 C14         -5.6500     0.3370     0.3810 ca         1 13J      -0.031000
     21 C15          1.4670    -1.3770     0.2660 cc         1 13J       0.427500
     22 C17          2.3530    -3.7520    -0.5630 ca         1 13J       0.457900
     23 C22          4.8310     3.5440    -0.2520 c6         1 13J       0.096000
     24 C23          4.5670     1.3340     0.7000 c6         1 13J       0.078000
     25 C24          4.0930     0.7750    -0.6460 c6         1 13J       0.082300
     26 C25          9.1380     3.2670     0.6400 c3         1 13J      -0.077100
     27 C27        -10.5990     1.5620     0.0850 c3         1 13J      -0.084100
     28 C28          7.6730     3.4980     0.3120 c3         1 13J      -0.152400
     29 C29         -9.4330     2.1270    -0.7260 c3         1 13J      -0.013400
     30 N30          4.5400    -2.1570    -1.2920 nb         1 13J      -0.225000
     31 N31          3.4450    -4.2700    -1.1310 nb         1 13J      -0.311000
     32 N32          2.0190    -0.1910     0.1550 nd         1 13J      -0.514100
     33 N33          3.2100    -0.3520    -0.4360 na         1 13J      -0.015100
     34 N34          5.4580     2.4510     0.4720 n          1 13J      -0.411800
     35 N35          1.3420    -4.5780    -0.2910 nv         1 13J      -1.070900
     36 N36         -4.4630    -0.3210     0.7370 ns         1 13J      -0.145000
     37 O37         -2.9260     1.3250     0.4140 o          1 13J      -0.571100
     38 O38          7.2690     1.3060     1.1730 o          1 13J      -0.594100
     39 H1          -7.1880     3.3400     0.2430 ha         1 13J       0.112500
     40 H2          -6.5720    -1.5230    -0.1810 ha         1 13J       0.124000
     41 H3          -5.0580     2.3530     0.8740 ha         1 13J       0.124000
     42 H4           5.3120    -3.9480    -1.9010 h5         1 13J       0.048100
     43 H5           5.2330     2.8020    -2.2280 hc         1 13J       0.052200
     44 H6           3.8470     3.8800    -2.1350 hc         1 13J       0.052200
     45 H7           2.5010     2.1740    -1.0040 hc         1 13J       0.061200
     46 H8           3.1700     1.4670    -2.4690 hc         1 13J       0.061200
     47 H9          -0.7070     0.1330    -0.1680 ha         1 13J       0.147000
     48 H10        -10.6080     2.4750    -2.5160 hc         1 13J       0.034533
     49 H11         -8.8710     2.3960    -2.8140 hc         1 13J       0.034533
     50 H12         -9.7820     0.9190    -2.5040 hc         1 13J       0.034533
     51 H13         -1.5000    -3.4270     3.1600 ha         1 13J       0.121000
     52 H14          0.7190    -3.1880     2.1280 ha         1 13J       0.126000
     53 H15         -3.3280    -1.9100     2.5510 ha         1 13J       0.118000
     54 H16         -8.7070    -0.5210    -0.7910 ha         1 13J       0.112500
     55 H17          5.5110     4.3860    -0.3460 h1         1 13J       0.054200
     56 H18          3.9740     3.8930     0.3330 h1         1 13J       0.054200
     57 H19          3.7040     1.6780     1.2790 h1         1 13J       0.078200
     58 H20          5.0740     0.5660     1.2780 h1         1 13J       0.078200
     59 H21          4.9600     0.3780    -1.1810 h1         1 13J       0.095700
     60 H22          9.2930     3.1000     1.7050 hc         1 13J       0.042033
     61 H23          9.5410     2.4090     0.1030 hc         1 13J       0.042033
     62 H24          9.7210     4.1420     0.3530 hc         1 13J       0.042033
     63 H25        -10.4480     1.7060     1.1550 hc         1 13J       0.034533
     64 H26        -11.5330     2.0550    -0.1920 hc         1 13J       0.034533
     65 H27        -10.7290     0.4920    -0.0930 hc         1 13J       0.034533
     66 H28          7.5620     3.7040    -0.7570 hc         1 13J       0.055200
     67 H29          7.3140     4.3950     0.8230 hc         1 13J       0.055200
     68 H30         -9.3620     3.1970    -0.5090 hc         1 13J       0.049700
     69 H31          0.4480    -4.2420     0.0210 hn         1 13J       0.502000
     70 H32          1.4000    -5.5380    -0.5860 hn         1 13J       0.502000
     71 H33         -4.5510    -1.3190     0.8490 hn         1 13J       0.151000
@<TRIPOS>BOND
     1     1     3 ar  
     2     1     5 ar  
     3     1    39 1   
     4     2    16 ar  
     5     2    20 ar  
     6     2    40 1   
     7     3    20 ar  
     8     3    41 1   
     9     4    30 ar  
    10     4    31 ar  
    11     4    42 1   
    12     5    16 ar  
    13     5    29 1   
    14     6     7 1   
    15     6    23 1   
    16     6    43 1   
    17     6    44 1   
    18     7    25 1   
    19     7    45 1   
    20     7    46 1   
    21     8    18 ar  
    22     8    19 ar  
    23     8    47 1   
    24     9    19 1   
    25     9    36 1   
    26     9    37 2   
    27    10    17 ar  
    28    10    30 ar  
    29    10    33 1   
    30    11    28 1   
    31    11    34 1   
    32    11    38 2   
    33    12    29 1   
    34    12    48 1   
    35    12    49 1   
    36    12    50 1   
    37    13    14 ar  
    38    13    15 ar  
    39    13    51 1   
    40    14    18 ar  
    41    14    52 1   
    42    15    19 ar  
    43    15    53 1   
    44    16    54 1   
    45    17    21 1   
    46    17    22 ar  
    47    18    21 1   
    48    20    36 1   
    49    21    32 2   
    50    22    31 ar  
    51    22    35 1   
    52    23    34 1   
    53    23    55 1   
    54    23    56 1   
    55    24    25 1   
    56    24    34 1   
    57    24    57 1   
    58    24    58 1   
    59    25    33 1   
    60    25    59 1   
    61    26    28 1   
    62    26    60 1   
    63    26    61 1   
    64    26    62 1   
    65    27    29 1   
    66    27    63 1   
    67    27    64 1   
    68    27    65 1   
    69    28    66 1   
    70    28    67 1   
    71    29    68 1   
    72    32    33 1   
    73    35    69 1   
    74    35    70 1   
    75    36    71 1   
@<TRIPOS>SUBSTRUCTURE
     1 13J         1 TEMP              0 ****  ****    0 ROOT
