@<TRIPOS>MOLECULE
13K
   53    56     1     0     0
SMALL
bcc


@<TRIPOS>ATOM
      1 N01          7.6980     1.9230    -0.0230 nv         1 13K      -0.954500
      2 C02          6.4130     1.5520     0.0050 ca         1 13K       0.918900
      3 N03          6.1490     0.2400     0.0680 nb         1 13K      -0.783000
      4 C04          4.8780    -0.1080     0.0830 ca         1 13K       0.517200
      5 N05          5.4890     2.5230    -0.0440 nb         1 13K      -0.783000
      6 C06          4.2290     2.1420    -0.0260 ca         1 13K       0.517200
      7 C07          3.8270     0.8090     0.0400 cp         1 13K      -0.470100
      8 C08          2.4240     0.3750     0.0700 cp         1 13K       0.609800
      9 C09          1.3750     1.2730     0.0900 ca         1 13K      -0.495600
     10 N10          2.2220    -0.9460     0.0870 nb         1 13K      -0.828000
     11 C11          0.9610    -1.3670     0.1180 ca         1 13K       0.966900
     12 N12          0.7480    -2.7070     0.0940 nh         1 13K      -0.777300
     13 C13         -0.5670    -3.2890     0.2750 c6         1 13K       0.190300
     14 C14         -0.7270    -4.4870    -0.6430 c6         1 13K       0.115400
     15 O15          0.3060    -5.4300    -0.4640 os         1 13K      -0.400600
     16 C16          1.5670    -4.8460    -0.7070 c6         1 13K       0.115400
     17 C17          1.8300    -3.6640     0.2080 c6         1 13K       0.190300
     18 N18         -0.1220    -0.5850     0.1600 nb         1 13K      -0.843000
     19 C19          0.0810     0.7220     0.1390 ca         1 13K       0.758200
     20 N20         -0.9810     1.5680     0.1640 nu         1 13K      -0.745300
     21 C21         -2.3500     1.2940     0.2200 ca         1 13K       0.172600
     22 C22         -2.9050     0.1340     0.7370 ca         1 13K      -0.142000
     23 C23         -4.2910    -0.0140     0.7750 ca         1 13K      -0.166000
     24 C24         -3.2050     2.3040    -0.2460 ca         1 13K      -0.245000
     25 C25         -4.5790     2.1620    -0.1940 ca         1 13K       0.139100
     26 O26         -5.4590     3.0890    -0.6150 os         1 13K      -0.296900
     27 C27         -4.9580     4.3060    -1.1300 c3         1 13K       0.122700
     28 C28         -5.1410     0.9770     0.3210 ca         1 13K       0.087100
     29 O29         -6.4890     0.9170     0.3260 os         1 13K      -0.297900
     30 C30         -7.0950    -0.2310     0.8840 c3         1 13K       0.122700
     31 HN01         7.9430     2.8970     0.0220 hn         1 13K       0.449800
     32 HN0A         8.4220     1.2410     0.1130 hn         1 13K       0.449800
     33 H04          4.6670    -1.1690     0.1340 h4         1 13K       0.031100
     34 H06          3.4990     2.9430    -0.0650 h4         1 13K       0.031100
     35 H09          1.5130     2.3440     0.0820 ha         1 13K       0.144000
     36 H13         -0.7020    -3.5960     1.3210 h1         1 13K       0.064950
     37 H13A        -1.3340    -2.5550     0.0450 h1         1 13K       0.064950
     38 H14         -1.6720    -4.9900    -0.4320 h1         1 13K       0.053950
     39 H14A        -0.7520    -4.1400    -1.6850 h1         1 13K       0.053950
     40 H16          2.3230    -5.6150    -0.5400 h1         1 13K       0.053950
     41 H16A         1.6430    -4.5180    -1.7540 h1         1 13K       0.053950
     42 H17          2.7700    -3.1950    -0.0660 h1         1 13K       0.064950
     43 H17A         1.9180    -4.0080     1.2460 h1         1 13K       0.064950
     44 HN20        -0.7480     2.5420     0.0490 hn         1 13K       0.440800
     45 H22         -2.2830    -0.6600     1.1160 ha         1 13K       0.160000
     46 H23         -4.6870    -0.9350     1.1800 ha         1 13K       0.137000
     47 H24         -2.7670     3.2060    -0.6530 ha         1 13K       0.133000
     48 H27         -4.3570     4.8460    -0.3920 h1         1 13K       0.039367
     49 H27A        -4.3560     4.1530    -2.0300 h1         1 13K       0.039367
     50 H27B        -5.8230     4.9110    -1.3880 h1         1 13K       0.039367
     51 H30         -6.8310    -1.1410     0.3380 h1         1 13K       0.038367
     52 H30A        -6.8280    -0.3630     1.9360 h1         1 13K       0.038367
     53 H30B        -8.1690    -0.0800     0.8110 h1         1 13K       0.038367
@<TRIPOS>BOND
     1     1     2 1   
     2     1    31 1   
     3     1    32 1   
     4     2     3 ar  
     5     2     5 ar  
     6     3     4 ar  
     7     4     7 ar  
     8     4    33 1   
     9     5     6 ar  
    10     6     7 ar  
    11     6    34 1   
    12     7     8 1   
    13     8     9 ar  
    14     8    10 ar  
    15     9    19 ar  
    16     9    35 1   
    17    10    11 ar  
    18    11    12 1   
    19    11    18 ar  
    20    12    13 1   
    21    12    17 1   
    22    13    14 1   
    23    13    36 1   
    24    13    37 1   
    25    14    15 1   
    26    14    38 1   
    27    14    39 1   
    28    15    16 1   
    29    16    17 1   
    30    16    40 1   
    31    16    41 1   
    32    17    42 1   
    33    17    43 1   
    34    18    19 ar  
    35    19    20 1   
    36    20    21 1   
    37    20    44 1   
    38    21    22 ar  
    39    21    24 ar  
    40    22    23 ar  
    41    22    45 1   
    42    23    28 ar  
    43    23    46 1   
    44    24    25 ar  
    45    24    47 1   
    46    25    26 1   
    47    25    28 ar  
    48    26    27 1   
    49    27    48 1   
    50    27    49 1   
    51    27    50 1   
    52    28    29 1   
    53    29    30 1   
    54    30    51 1   
    55    30    52 1   
    56    30    53 1   
@<TRIPOS>SUBSTRUCTURE
     1 13K         1 TEMP              0 ****  ****    0 ROOT
