@<TRIPOS>MOLECULE
13K
   53    56     1     0     0
SMALL
No Charge or Current Charge


@<TRIPOS>ATOM
      1 N01          7.7660     2.0540     0.1700 nv         1 13K      -1.064900
      2 C02          6.4730     1.6500     0.1350 ca         1 13K       0.392900
      3 N03          6.2660     0.3290     0.1800 nb         1 13K      -0.257000
      4 C04          4.9800    -0.0710     0.1460 ca         1 13K       0.188900
      5 N05          5.5530     2.6190     0.0610 nb         1 13K      -0.257000
      6 C06          4.2680     2.2170     0.0280 ca         1 13K       0.188900
      7 C07          3.8990     0.8470     0.0690 cp         1 13K      -0.339500
      8 C08          2.4730     0.3920     0.0310 cp         1 13K       0.281500
      9 C09          1.3740     1.2750     0.1040 ca         1 13K      -0.347000
     10 N10          2.2530    -0.9290    -0.0750 nb         1 13K      -0.302000
     11 C11          0.9790    -1.3650    -0.1170 ca         1 13K       0.440900
     12 N12          0.7720    -2.7660    -0.2390 nh         1 13K      -0.777300
     13 C13         -0.5980    -3.3700    -0.0450 c6         1 13K       0.190300
     14 C14         -0.7380    -4.7880    -0.6730 c6         1 13K       0.138600
     15 O15          0.3470    -5.6490    -0.2610 os         1 13K      -0.447000
     16 C16          1.6340    -5.1380    -0.6710 c6         1 13K       0.138600
     17 C17          1.9090    -3.7400    -0.0430 c6         1 13K       0.190300
     18 N18         -0.1130    -0.5840    -0.0590 nb         1 13K      -0.317000
     19 C19          0.0920     0.7310     0.0640 ca         1 13K       0.429900
     20 N20         -1.0070     1.5750     0.1070 nu         1 13K      -0.938900
     21 C21         -2.3840     1.3790     0.2310 ca         1 13K       0.311000
     22 C22         -2.9340     0.2550     0.8740 ca         1 13K      -0.124000
     23 C23         -4.3270     0.1040     0.9880 ca         1 13K      -0.148000
     24 C24         -3.2370     2.3690    -0.2770 ca         1 13K      -0.227000
     25 C25         -4.6400     2.2300    -0.1720 ca         1 13K       0.139100
     26 O26         -5.5060     3.1880    -0.6750 os         1 13K      -0.320100
     27 C27         -5.0440     4.3800    -1.3350 c3         1 13K       0.145900
     28 C28         -5.1910     1.0900     0.4610 ca         1 13K       0.087100
     29 O29         -6.5690     0.9780     0.5520 os         1 13K      -0.321100
     30 C30         -7.2140    -0.1450     1.1770 c3         1 13K       0.145900
     31 HN01         7.9600     3.0340     0.3670 hn         1 13K       0.505000
     32 HN0A         8.4780     1.3840     0.4530 hn         1 13K       0.505000
     33 H04          4.8190    -1.1470     0.1850 h4         1 13K       0.031100
     34 H06          3.5300     3.0130    -0.0410 h4         1 13K       0.031100
     35 H09          1.5090     2.3450     0.1980 ha         1 13K       0.126000
     36 H13         -0.8250    -3.4390     1.0290 h1         1 13K       0.064950
     37 H13A        -1.3760    -2.7390    -0.4990 h1         1 13K       0.064950
     38 H14         -1.6920    -5.2380    -0.3660 h1         1 13K       0.053950
     39 H14A        -0.7380    -4.7100    -1.7700 h1         1 13K       0.053950
     40 H16          2.4180    -5.8440    -0.3620 h1         1 13K       0.053950
     41 H16A         1.6600    -5.0640    -1.7680 h1         1 13K       0.053950
     42 H17          2.8370    -3.3610    -0.4950 h1         1 13K       0.064950
     43 H17A         2.1040    -3.8700     1.0320 h1         1 13K       0.064950
     44 HN20        -0.7530     2.5460    -0.0660 hn         1 13K       0.496000
     45 H22         -2.2870    -0.5000     1.3070 ha         1 13K       0.142000
     46 H23         -4.7140    -0.7780     1.4910 ha         1 13K       0.119000
     47 H24         -2.7980     3.2350    -0.7600 ha         1 13K       0.115000
     48 H27         -4.4220     4.9830    -0.6620 h1         1 13K       0.039367
     49 H27A        -4.4570     4.1280    -2.2280 h1         1 13K       0.039367
     50 H27B        -5.8960     4.9930    -1.6510 h1         1 13K       0.039367
     51 H30         -6.9510    -1.0800     0.6660 h1         1 13K       0.038367
     52 H30A        -6.9220    -0.2250     2.2320 h1         1 13K       0.038367
     53 H30B        -8.3040    -0.0290     1.1350 h1         1 13K       0.038367
@<TRIPOS>BOND
     1     1     2 1   
     2     1    31 1   
     3     1    32 1   
     4     2     3 ar  
     5     2     5 ar  
     6     3     4 ar  
     7     4     7 ar  
     8     4    33 1   
     9     5     6 ar  
    10     6     7 ar  
    11     6    34 1   
    12     7     8 1   
    13     8     9 ar  
    14     8    10 ar  
    15     9    19 ar  
    16     9    35 1   
    17    10    11 ar  
    18    11    12 1   
    19    11    18 ar  
    20    12    13 1   
    21    12    17 1   
    22    13    14 1   
    23    13    36 1   
    24    13    37 1   
    25    14    15 1   
    26    14    38 1   
    27    14    39 1   
    28    15    16 1   
    29    16    17 1   
    30    16    40 1   
    31    16    41 1   
    32    17    42 1   
    33    17    43 1   
    34    18    19 ar  
    35    19    20 1   
    36    20    21 1   
    37    20    44 1   
    38    21    22 ar  
    39    21    24 ar  
    40    22    23 ar  
    41    22    45 1   
    42    23    28 ar  
    43    23    46 1   
    44    24    25 ar  
    45    24    47 1   
    46    25    26 1   
    47    25    28 ar  
    48    26    27 1   
    49    27    48 1   
    50    27    49 1   
    51    27    50 1   
    52    28    29 1   
    53    29    30 1   
    54    30    51 1   
    55    30    52 1   
    56    30    53 1   
@<TRIPOS>SUBSTRUCTURE
     1 13K         1 TEMP              0 ****  ****    0 ROOT
