@<TRIPOS>MOLECULE
13L
   71    75     1     0     0
SMALL
bcc


@<TRIPOS>ATOM
      1 C4          -8.2080    -0.8150     0.7460 ca         1 13L      -0.099000
      2 C7          -6.3520     0.0740    -1.1110 ca         1 13L      -0.165000
      3 C6          -6.8580    -1.0520     0.9470 ca         1 13L      -0.165000
      4 C9           2.8730     3.7920     0.8330 ca         1 13L       0.725900
      5 C13         -8.6650    -0.1320    -0.3770 ca         1 13L      -0.096300
      6 C20          6.1180    -0.5430    -2.6880 c6         1 13L      -0.098400
      7 C21          4.7230    -0.1850    -2.1880 c6         1 13L      -0.089400
      8 C8          -1.0180    -0.2630     0.0650 ca         1 13L      -0.075000
      9 C18         -3.4530    -0.4510    -0.3090 c          1 13L       0.684700
     10 C16          2.9690     1.6710     0.2530 ca         1 13L       0.491800
     11 C19          7.8960    -0.7260     0.2710 c          1 13L       0.671100
     12 C26        -10.4480     1.6260    -0.5620 c3         1 13L      -0.084100
     13 C1          -0.8480    -2.8100     1.1400 ca         1 13L      -0.139000
     14 C2           0.2930    -2.0340     1.0220 ca         1 13L      -0.077000
     15 C3          -2.0800    -2.3120     0.7380 ca         1 13L      -0.100000
     16 C5          -7.7080     0.3010    -1.2920 ca         1 13L      -0.099000
     17 C10          1.6420     1.4420     0.6270 ca         1 13L      -0.510500
     18 C11          0.2140    -0.7470     0.4890 ca         1 13L      -0.106900
     19 C12         -2.1710    -1.0310     0.2010 ca         1 13L      -0.160600
     20 C14         -5.9110    -0.6100     0.0240 ca         1 13L       0.066600
     21 C15          1.4250     0.0670     0.3370 cc         1 13L       0.431500
     22 C17          0.9770     2.5470     1.2070 ca         1 13L       0.785200
     23 C22          6.7670    -1.5830    -1.7840 c6         1 13L       0.098000
     24 C23          5.4670    -0.8520     0.1270 c6         1 13L       0.082000
     25 C24          4.7750     0.2230    -0.7170 c6         1 13L       0.055000
     26 C25         10.4120    -0.5300     0.4680 c3         1 13L      -0.077100
     27 C27        -10.6370    -0.5070    -1.8870 c3         1 13L      -0.084100
     28 C28          9.2370    -0.9280    -0.4090 c3         1 13L      -0.152400
     29 C29        -10.1370     0.1290    -0.5910 c3         1 13L      -0.012400
     30 N30          3.6240     2.8330     0.3330 nb         1 13L      -0.755000
     31 N31          1.6180     3.7160     1.2730 nb         1 13L      -0.835000
     32 N32          2.5230    -0.4650    -0.1460 nd         1 13L      -0.522100
     33 N33          3.4530     0.4970    -0.1950 na         1 13L       0.014200
     34 N34          6.7880    -1.1120    -0.4090 n          1 13L      -0.481800
     35 N35         -0.2660     2.4900     1.6920 nv         1 13L      -0.951500
     36 N36         -4.5720    -0.9150     0.2970 ns         1 13L      -0.467100
     37 O37         -3.4530     0.3830    -1.1990 o          1 13L      -0.575100
     38 O38          7.8260    -0.2400     1.3920 o          1 13L      -0.595100
     39 H1          -8.9170    -1.1730     1.4830 ha         1 13L       0.131000
     40 H2          -5.6570     0.4270    -1.8540 ha         1 13L       0.144500
     41 H3          -6.5370    -1.5870     1.8340 ha         1 13L       0.144500
     42 H4           3.3330     4.7710     0.9100 h5         1 13L       0.048100
     43 H5           6.0630    -0.9290    -3.7070 hc         1 13L       0.052700
     44 H6           6.7480     0.3500    -2.7150 hc         1 13L       0.052700
     45 H7           4.2960     0.6240    -2.7830 hc         1 13L       0.061200
     46 H8           4.0620    -1.0500    -2.2950 hc         1 13L       0.061200
     47 H9          -1.0840     0.7120    -0.4020 ha         1 13L       0.164000
     48 H10        -11.5220     1.7960    -0.6560 hc         1 13L       0.035033
     49 H11        -10.1170     2.0840     0.3700 hc         1 13L       0.035033
     50 H12         -9.9600     2.1510    -1.3860 hc         1 13L       0.035033
     51 H13         -0.7810    -3.8100     1.5460 ha         1 13L       0.140000
     52 H14          1.2490    -2.4230     1.3470 ha         1 13L       0.149000
     53 H15         -2.9500    -2.9500     0.8210 ha         1 13L       0.133000
     54 H16         -8.0180     0.8320    -2.1840 ha         1 13L       0.131000
     55 H17          6.1910    -2.5140    -1.8160 h1         1 13L       0.052200
     56 H18          7.7680    -1.8230    -2.1270 h1         1 13L       0.052200
     57 H19          5.5430    -0.5360     1.1630 h1         1 13L       0.076200
     58 H20          4.8810    -1.7760     0.0980 h1         1 13L       0.076200
     59 H21          5.3330     1.1560    -0.6180 h1         1 13L       0.096700
     60 H22         10.3610     0.5170     0.7650 hc         1 13L       0.042700
     61 H23         10.4610    -1.1340     1.3730 hc         1 13L       0.042700
     62 H24         11.3430    -0.6750    -0.0790 hc         1 13L       0.042700
     63 H25        -10.4450    -1.5800    -1.9060 hc         1 13L       0.035033
     64 H26        -11.7130    -0.3570    -2.0000 hc         1 13L       0.035033
     65 H27        -10.1510    -0.0650    -2.7590 hc         1 13L       0.035033
     66 H28          9.3420    -1.9730    -0.7130 hc         1 13L       0.055200
     67 H29          9.2540    -0.3480    -1.3370 hc         1 13L       0.055200
     68 H30        -10.6740    -0.3380     0.2410 hc         1 13L       0.046700
     69 H31         -0.7320     1.6120     1.8390 hn         1 13L       0.444800
     70 H32         -0.6300     3.2890     2.1830 hn         1 13L       0.444800
     71 H33         -4.4370    -1.4970     1.1090 hn         1 13L       0.317500
@<TRIPOS>BOND
     1     1     3 ar  
     2     1     5 ar  
     3     1    39 1   
     4     2    16 ar  
     5     2    20 ar  
     6     2    40 1   
     7     3    20 ar  
     8     3    41 1   
     9     4    30 ar  
    10     4    31 ar  
    11     4    42 1   
    12     5    16 ar  
    13     5    29 1   
    14     6     7 1   
    15     6    23 1   
    16     6    43 1   
    17     6    44 1   
    18     7    25 1   
    19     7    45 1   
    20     7    46 1   
    21     8    18 ar  
    22     8    19 ar  
    23     8    47 1   
    24     9    19 1   
    25     9    36 1   
    26     9    37 2   
    27    10    17 ar  
    28    10    30 ar  
    29    10    33 1   
    30    11    28 1   
    31    11    34 1   
    32    11    38 2   
    33    12    29 1   
    34    12    48 1   
    35    12    49 1   
    36    12    50 1   
    37    13    14 ar  
    38    13    15 ar  
    39    13    51 1   
    40    14    18 ar  
    41    14    52 1   
    42    15    19 ar  
    43    15    53 1   
    44    16    54 1   
    45    17    21 1   
    46    17    22 ar  
    47    18    21 1   
    48    20    36 1   
    49    21    32 2   
    50    22    31 ar  
    51    22    35 1   
    52    23    34 1   
    53    23    55 1   
    54    23    56 1   
    55    24    25 1   
    56    24    34 1   
    57    24    57 1   
    58    24    58 1   
    59    25    33 1   
    60    25    59 1   
    61    26    28 1   
    62    26    60 1   
    63    26    61 1   
    64    26    62 1   
    65    27    29 1   
    66    27    63 1   
    67    27    64 1   
    68    27    65 1   
    69    28    66 1   
    70    28    67 1   
    71    29    68 1   
    72    32    33 1   
    73    35    69 1   
    74    35    70 1   
    75    36    71 1   
@<TRIPOS>SUBSTRUCTURE
     1 13L         1 TEMP              0 ****  ****    0 ROOT
