@<TRIPOS>MOLECULE
13L
   71    75     1     0     0
SMALL
No Charge or Current Charge


@<TRIPOS>ATOM
      1 C4          -8.3580    -1.3230     0.2720 ca         1 13L      -0.081000
      2 C7          -6.4940     0.4440    -0.8590 ca         1 13L      -0.147000
      3 C6          -6.9890    -1.4600     0.5600 ca         1 13L      -0.147000
      4 C9           2.8920     3.9340     0.6310 ca         1 13L       0.199900
      5 C13         -8.8080    -0.3000    -0.5840 ca         1 13L      -0.096300
      6 C20          6.1450    -0.5810    -2.8110 c6         1 13L      -0.098400
      7 C21          4.7400    -0.2370    -2.2520 c6         1 13L      -0.089400
      8 C8          -0.9950    -0.0310     0.3270 ca         1 13L      -0.057000
      9 C18         -3.5100    -0.0990     0.0200 c          1 13L       0.617700
     10 C16          3.0440     1.7090     0.1470 ca         1 13L       0.163500
     11 C19          8.1050    -0.7970     0.1410 c          1 13L       0.604100
     12 C26        -10.8560     1.1950    -0.3930 c3         1 13L      -0.084100
     13 C1          -1.0010    -2.3710     1.8660 ca         1 13L      -0.121000
     14 C2           0.2110    -1.7200     1.5900 ca         1 13L      -0.059000
     15 C3          -2.2130    -1.8540     1.3800 ca         1 13L      -0.082000
     16 C5          -7.8630     0.5810    -1.1470 ca         1 13L      -0.081000
     17 C10          1.7770     1.5320     0.6280 ca         1 13L      -0.379900
     18 C11          0.2200    -0.5270     0.8440 ca         1 13L      -0.106900
     19 C12         -2.2260    -0.6760     0.5930 ca         1 13L      -0.160600
     20 C14         -6.0430    -0.5810     0.0020 ca         1 13L      -0.026000
     21 C15          1.4920     0.1210     0.5150 cc         1 13L       0.431500
     22 C17          1.0970     2.6190     1.1690 ca         1 13L       0.456900
     23 C22          6.8470    -1.6450    -1.9340 c6         1 13L       0.098000
     24 C23          5.5660    -0.9210     0.0620 c6         1 13L       0.082000
     25 C24          4.8250     0.1700    -0.7550 c6         1 13L       0.084300
     26 C25         10.7190    -0.7770     0.3200 c3         1 13L      -0.077100
     27 C27        -10.5910    -0.3730    -2.3960 c3         1 13L      -0.084100
     28 C28          9.4640    -1.1170    -0.5170 c3         1 13L      -0.152400
     29 C29        -10.3010    -0.1570    -0.8940 c3         1 13L      -0.012400
     30 N30          3.6350     2.9190     0.1290 nb         1 13L      -0.229000
     31 N31          1.6500     3.8400     1.1660 nb         1 13L      -0.309000
     32 N32          2.5400    -0.5620     0.0400 nd         1 13L      -0.522100
     33 N33          3.4760     0.4410    -0.1970 na         1 13L      -0.015100
     34 N34          6.9140    -1.1930    -0.5160 n          1 13L      -0.414800
     35 N35         -0.1070     2.5310     1.7710 nv         1 13L      -1.061900
     36 N36         -4.6760    -0.7870     0.3410 ns         1 13L      -0.141000
     37 O37         -3.4930     0.9110    -0.6760 o          1 13L      -0.575100
     38 O38          8.0550    -0.2320     1.2260 o          1 13L      -0.595100
     39 H1          -9.0680    -2.0160     0.7180 ha         1 13L       0.113000
     40 H2          -5.8050     1.1430    -1.3190 ha         1 13L       0.126500
     41 H3          -6.6650    -2.2580     1.2240 ha         1 13L       0.126500
     42 H4           3.3480     4.9230     0.6240 h5         1 13L       0.048100
     43 H5           6.0590    -0.9470    -3.8440 hc         1 13L       0.052700
     44 H6           6.7630     0.3270    -2.8500 hc         1 13L       0.052700
     45 H7           4.2920     0.5770    -2.8380 hc         1 13L       0.061200
     46 H8           4.0780    -1.1070    -2.3660 hc         1 13L       0.061200
     47 H9          -0.9750     0.8620    -0.2970 ha         1 13L       0.146000
     48 H10        -11.9400     1.2480    -0.5480 hc         1 13L       0.035033
     49 H11        -10.6590     1.3170     0.6790 hc         1 13L       0.035033
     50 H12        -10.3930     2.0350    -0.9250 hc         1 13L       0.035033
     51 H13         -1.0000    -3.2850     2.4570 ha         1 13L       0.122000
     52 H14          1.1430    -2.1370     1.9650 ha         1 13L       0.131000
     53 H15         -3.1280    -2.3920     1.6140 ha         1 13L       0.115000
     54 H16         -8.1880     1.3770    -1.8130 ha         1 13L       0.113000
     55 H17          6.2770    -2.5840    -1.9770 h1         1 13L       0.052200
     56 H18          7.8400    -1.8610    -2.3480 h1         1 13L       0.052200
     57 H19          5.6410    -0.6040     1.1120 h1         1 13L       0.076200
     58 H20          4.9810    -1.8510     0.0510 h1         1 13L       0.076200
     59 H21          5.4180     1.0920    -0.6850 h1         1 13L       0.096700
     60 H22         10.7570     0.2960     0.5450 hc         1 13L       0.042700
     61 H23         10.7160    -1.3310     1.2670 hc         1 13L       0.042700
     62 H24         11.6290    -1.0430    -0.2300 hc         1 13L       0.042700
     63 H25        -10.2090    -1.3470    -2.7240 hc         1 13L       0.035033
     64 H26        -11.6700    -0.3490    -2.5880 hc         1 13L       0.035033
     65 H27        -10.1180     0.4050    -3.0070 hc         1 13L       0.035033
     66 H28          9.4590    -2.1720    -0.8160 hc         1 13L       0.055200
     67 H29          9.4940    -0.6140    -1.4900 hc         1 13L       0.055200
     68 H30        -10.8500    -0.9390    -0.3540 hc         1 13L       0.046700
     69 H31         -0.4360     1.6140     2.0560 hn         1 13L       0.500000
     70 H32         -0.4170     3.3190     2.3320 hn         1 13L       0.500000
     71 H33         -4.5260    -1.5940     0.9300 hn         1 13L       0.151000
@<TRIPOS>BOND
     1     1     3 ar  
     2     1     5 ar  
     3     1    39 1   
     4     2    16 ar  
     5     2    20 ar  
     6     2    40 1   
     7     3    20 ar  
     8     3    41 1   
     9     4    30 ar  
    10     4    31 ar  
    11     4    42 1   
    12     5    16 ar  
    13     5    29 1   
    14     6     7 1   
    15     6    23 1   
    16     6    43 1   
    17     6    44 1   
    18     7    25 1   
    19     7    45 1   
    20     7    46 1   
    21     8    18 ar  
    22     8    19 ar  
    23     8    47 1   
    24     9    19 1   
    25     9    36 1   
    26     9    37 2   
    27    10    17 ar  
    28    10    30 ar  
    29    10    33 1   
    30    11    28 1   
    31    11    34 1   
    32    11    38 2   
    33    12    29 1   
    34    12    48 1   
    35    12    49 1   
    36    12    50 1   
    37    13    14 ar  
    38    13    15 ar  
    39    13    51 1   
    40    14    18 ar  
    41    14    52 1   
    42    15    19 ar  
    43    15    53 1   
    44    16    54 1   
    45    17    21 1   
    46    17    22 ar  
    47    18    21 1   
    48    20    36 1   
    49    21    32 2   
    50    22    31 ar  
    51    22    35 1   
    52    23    34 1   
    53    23    55 1   
    54    23    56 1   
    55    24    25 1   
    56    24    34 1   
    57    24    57 1   
    58    24    58 1   
    59    25    33 1   
    60    25    59 1   
    61    26    28 1   
    62    26    60 1   
    63    26    61 1   
    64    26    62 1   
    65    27    29 1   
    66    27    63 1   
    67    27    64 1   
    68    27    65 1   
    69    28    66 1   
    70    28    67 1   
    71    29    68 1   
    72    32    33 1   
    73    35    69 1   
    74    35    70 1   
    75    36    71 1   
@<TRIPOS>SUBSTRUCTURE
     1 13L         1 TEMP              0 ****  ****    0 ROOT
