@<TRIPOS>MOLECULE
13M
   61    65     1     0     0
SMALL
No Charge or Current Charge


@<TRIPOS>ATOM
      1 C1          -7.2100     0.8380    -0.0710 c          1 13M       0.717000
      2 O1          -7.9970     0.3040     0.6980 o          1 13M      -0.735000
      3 C2          -6.1230     1.7750     0.5110 c3         1 13M      -0.188700
      4 O2          -7.2570     0.6950    -1.2840 o          1 13M      -0.735000
      5 C3          -6.7790     3.0100     1.1940 c3         1 13M      -0.060400
      6 O3          -2.3650    -3.2360    -1.2220 os         1 13M      -0.348100
      7 C4          -5.8000     4.1510     1.5440 c3         1 13M      -0.088100
      8 C5          -5.1590     0.9990     1.4500 c3         1 13M      -0.007100
      9 C6          -4.4300    -0.1360     0.7410 ca         1 13M      -0.069300
     10 C7          -3.3440     0.1440    -0.1090 ca         1 13M      -0.066000
     11 C8          -2.6580    -0.8960    -0.7680 ca         1 13M      -0.169300
     12 C9          -3.0610    -2.2340    -0.5710 ca         1 13M       0.127100
     13 C10         -4.1510    -2.5160     0.2810 ca         1 13M      -0.202000
     14 C11         -4.8300    -1.4710     0.9310 ca         1 13M      -0.036000
     15 C12         -2.6970    -4.6280    -1.0740 c3         1 13M       0.152900
     16 C15         -1.4850    -0.5550    -1.6760 c3         1 13M       0.161300
     17 C17          3.3690     0.2190    -0.5760 ca         1 13M       0.006000
     18 C19          4.4530    -0.1150     0.2800 ca         1 13M      -0.024000
     19 C22          2.1290    -1.6920     0.3180 ca         1 13M      -0.087000
     20 C85          6.9090     2.5760    -0.5470 ca         1 13M      -0.098000
     21 C86          7.9810     2.2300     0.2930 ca         1 13M      -0.111000
     22 C87          2.1910    -0.5890    -0.5680 ca         1 13M      -0.122600
     23 C88          7.8820     1.1090     1.1330 ca         1 13M      -0.102000
     24 C89          6.7110     0.3280     1.1340 ca         1 13M      -0.033000
     25 C91          6.6120    -0.7900     1.9790 ca         1 13M      -0.099000
     26 C92          5.4420    -1.5640     1.9850 ca         1 13M      -0.095000
     27 C93          3.4900     1.3730    -1.3900 ca         1 13M      -0.075000
     28 C94          4.6610     2.1470    -1.3810 ca         1 13M      -0.111000
     29 C95          5.7370     1.7980    -0.5510 ca         1 13M      -0.027000
     30 C96          5.6330     0.6690     0.2860 ca         1 13M      -0.016000
     31 C97          1.0070    -0.3440    -1.4860 c          1 13M       0.617700
     32 C98          4.3660    -1.2300     1.1410 ca         1 13M      -0.029000
     33 C99          3.2020    -2.0090     1.1600 ca         1 13M      -0.102000
     34 N99         -0.2240    -0.6410    -0.9490 ns         1 13M      -0.489900
     35 O99          1.1150     0.0120    -2.6510 o          1 13M      -0.600100
     36 H2          -5.5310     2.1520    -0.3320 hc         1 13M       0.033700
     37 H3          -7.5430     3.4160     0.5190 hc         1 13M       0.041200
     38 H3A         -7.3050     2.6950     2.1040 hc         1 13M       0.041200
     39 H4          -6.3530     5.0190     1.9230 hc         1 13M       0.011700
     40 H4A         -5.0890     3.8430     2.3190 hc         1 13M       0.011700
     41 H4B         -5.2360     4.4660     0.6580 hc         1 13M       0.011700
     42 H5          -4.4130     1.6890     1.8610 hc         1 13M       0.030200
     43 H5A         -5.7190     0.6160     2.3120 hc         1 13M       0.030200
     44 H7          -3.0310     1.1760    -0.2550 ha         1 13M       0.105000
     45 H10         -4.4870    -3.5340     0.4530 ha         1 13M       0.107000
     46 H11         -5.6700    -1.7000     1.5840 ha         1 13M       0.137000
     47 H12         -2.6040    -4.9410    -0.0260 h1         1 13M       0.033033
     48 H12A        -3.7230    -4.8220    -1.4110 h1         1 13M       0.033033
     49 H12B        -2.0180    -5.2450    -1.6750 h1         1 13M       0.033033
     50 H15         -1.4550    -1.2410    -2.5330 h1         1 13M       0.062200
     51 H15A        -1.6010     0.4650    -2.0690 h1         1 13M       0.062200
     52 H86          8.8860     2.8330     0.2950 ha         1 13M       0.108000
     53 H88          8.7150     0.8490     1.7830 ha         1 13M       0.109000
     54 H91          7.4370    -1.0580     2.6350 ha         1 13M       0.109000
     55 H92          5.3730    -2.4250     2.6460 ha         1 13M       0.112000
     56 H93          2.6820     1.7060    -2.0310 ha         1 13M       0.139000
     57 H94          4.7270     3.0250    -2.0190 ha         1 13M       0.113000
     58 H99          3.1300    -2.8700     1.8200 ha         1 13M       0.115000
     59 HN99        -0.2480    -0.9350     0.0180 hn         1 13M       0.309500
     60 H22          1.2550    -2.3410     0.3370 ha         1 13M       0.131000
     61 H85          6.9910     3.4480    -1.1910 ha         1 13M       0.112000
@<TRIPOS>BOND
     1     1     2 1   
     2     1     3 1   
     3     1     4 1   
     4     3     5 1   
     5     3     8 1   
     6     3    36 1   
     7     5     7 1   
     8     5    37 1   
     9     5    38 1   
    10     6    12 1   
    11     6    15 1   
    12     7    39 1   
    13     7    40 1   
    14     7    41 1   
    15     8     9 1   
    16     8    42 1   
    17     8    43 1   
    18     9    10 ar  
    19     9    14 ar  
    20    10    11 ar  
    21    10    44 1   
    22    11    12 ar  
    23    11    16 1   
    24    12    13 ar  
    25    13    14 ar  
    26    13    45 1   
    27    14    46 1   
    28    15    47 1   
    29    15    48 1   
    30    15    49 1   
    31    16    34 1   
    32    16    50 1   
    33    16    51 1   
    34    17    18 ar  
    35    17    22 ar  
    36    17    27 ar  
    37    18    30 ar  
    38    18    32 ar  
    39    19    22 ar  
    40    19    33 ar  
    41    19    60 1   
    42    20    21 ar  
    43    20    29 ar  
    44    20    61 1   
    45    21    23 ar  
    46    21    52 1   
    47    22    31 1   
    48    23    24 ar  
    49    23    53 1   
    50    24    25 ar  
    51    24    30 ar  
    52    25    26 ar  
    53    25    54 1   
    54    26    32 ar  
    55    26    55 1   
    56    27    28 ar  
    57    27    56 1   
    58    28    29 ar  
    59    28    57 1   
    60    29    30 ar  
    61    31    34 1   
    62    31    35 2   
    63    32    33 ar  
    64    33    58 1   
    65    34    59 1   
@<TRIPOS>SUBSTRUCTURE
     1 13M         1 TEMP              0 ****  ****    0 ROOT
