@<TRIPOS>MOLECULE
13M
   61    65     1     0     0
SMALL
bcc


@<TRIPOS>ATOM
      1 C1          -7.3270     0.0780    -0.2000 c          1 13M       0.927600
      2 O1          -7.7270    -0.8300     0.5590 o          1 13M      -0.840300
      3 C2          -6.6890     1.3050     0.4790 c3         1 13M      -0.188700
      4 O2          -7.4290     0.0960    -1.4440 o          1 13M      -0.840300
      5 C3          -7.7840     2.1250     1.1740 c3         1 13M      -0.060400
      6 O3          -1.3850    -1.8850    -1.1290 os         1 13M      -0.324900
      7 C4          -7.3170     3.4740     1.7060 c3         1 13M      -0.088100
      8 C5          -5.5900     0.8850     1.4610 c3         1 13M      -0.007100
      9 C6          -4.4790     0.1190     0.8000 ca         1 13M      -0.069300
     10 C7          -3.4850     0.7810     0.0780 ca         1 13M      -0.084000
     11 C8          -2.4590     0.1100    -0.5680 ca         1 13M      -0.169300
     12 C9          -2.4100    -1.2900    -0.4870 ca         1 13M       0.127100
     13 C10         -3.3860    -1.9710     0.2300 ca         1 13M      -0.220000
     14 C11         -4.4080    -1.2650     0.8580 ca         1 13M      -0.054000
     15 C12         -1.2460    -3.2860    -1.0350 c3         1 13M       0.129700
     16 C15         -1.3950     0.8700    -1.3150 c3         1 13M       0.161300
     17 C17          3.4170     0.1490    -0.6110 ca         1 13M       0.006000
     18 C19          4.4230    -0.2780     0.2960 ca         1 13M      -0.024000
     19 C22          1.7660    -0.9470     0.7810 ca         1 13M      -0.105000
     20 C85          7.4860     1.1730    -1.2600 ca         1 13M      -0.116000
     21 C86          8.4610     0.7450    -0.3730 ca         1 13M      -0.129000
     22 C87          2.0810    -0.1960    -0.3480 ca         1 13M      -0.122600
     23 C88          8.1180    -0.0170     0.7350 ca         1 13M      -0.120000
     24 C89          6.7890    -0.3650     0.9750 ca         1 13M      -0.033000
     25 C91          6.4080    -1.1490     2.1110 ca         1 13M      -0.117000
     26 C92          5.1150    -1.4760     2.3290 ca         1 13M      -0.113000
     27 C93          3.8170     0.9460    -1.7370 ca         1 13M      -0.093000
     28 C94          5.1120     1.2750    -1.9430 ca         1 13M      -0.129000
     29 C95          6.1460     0.8450    -1.0530 ca         1 13M      -0.027000
     30 C96          5.7850     0.0670     0.0720 ca         1 13M      -0.016000
     31 C97          0.9680     0.1550    -1.2880 c          1 13M       0.684700
     32 C98          4.0820    -1.0510     1.4340 ca         1 13M      -0.029000
     33 C99          2.7460    -1.3770     1.6560 ca         1 13M      -0.120000
     34 N99         -0.0980     0.7120    -0.6910 ns         1 13M      -0.556900
     35 O99          1.0400    -0.0710    -2.4870 o          1 13M      -0.600100
     36 H2          -6.2350     1.9360    -0.2950 hc         1 13M       0.033700
     37 H3          -8.5980     2.2940     0.4610 hc         1 13M       0.041200
     38 H3A         -8.2110     1.5330     1.9880 hc         1 13M       0.041200
     39 H4          -8.1540     4.0490     2.1060 hc         1 13M       0.011700
     40 H4A         -6.5850     3.3720     2.5080 hc         1 13M       0.011700
     41 H4B         -6.8570     4.0700     0.9150 hc         1 13M       0.011700
     42 H5          -5.1720     1.7740     1.9420 hc         1 13M       0.030200
     43 H5A         -6.0350     0.2790     2.2540 hc         1 13M       0.030200
     44 H7          -3.5070     1.8650     0.0200 ha         1 13M       0.123000
     45 H10         -3.3710    -3.0500     0.3110 ha         1 13M       0.125000
     46 H11         -5.1670    -1.8150     1.4000 ha         1 13M       0.155000
     47 H12         -1.1220    -3.6160     0.0010 h1         1 13M       0.033033
     48 H12A        -2.0990    -3.8140    -1.4700 h1         1 13M       0.033033
     49 H12B        -0.3510    -3.5460    -1.5950 h1         1 13M       0.033033
     50 H15         -1.3130     0.5330    -2.3480 h1         1 13M       0.062200
     51 H15A        -1.6630     1.9290    -1.3460 h1         1 13M       0.062200
     52 H86          9.4970     1.0060    -0.5450 ha         1 13M       0.126000
     53 H88          8.8860    -0.3460     1.4250 ha         1 13M       0.127000
     54 H91          7.1800    -1.4760     2.7970 ha         1 13M       0.127000
     55 H92          4.8370    -2.0670     3.1930 ha         1 13M       0.130000
     56 H93          3.0700     1.2910    -2.4360 ha         1 13M       0.157000
     57 H94          5.3860     1.8780    -2.8000 ha         1 13M       0.131000
     58 H99          2.4760    -1.9700     2.5210 ha         1 13M       0.133000
     59 HN99        -0.0440     0.9080     0.2960 hn         1 13M       0.309500
     60 H22          0.7370    -1.2240     0.9680 ha         1 13M       0.149000
     61 H85          7.7610     1.7660    -2.1240 ha         1 13M       0.130000
@<TRIPOS>BOND
     1     1     2 1   
     2     1     3 1   
     3     1     4 1   
     4     3     5 1   
     5     3     8 1   
     6     3    36 1   
     7     5     7 1   
     8     5    37 1   
     9     5    38 1   
    10     6    12 1   
    11     6    15 1   
    12     7    39 1   
    13     7    40 1   
    14     7    41 1   
    15     8     9 1   
    16     8    42 1   
    17     8    43 1   
    18     9    10 ar  
    19     9    14 ar  
    20    10    11 ar  
    21    10    44 1   
    22    11    12 ar  
    23    11    16 1   
    24    12    13 ar  
    25    13    14 ar  
    26    13    45 1   
    27    14    46 1   
    28    15    47 1   
    29    15    48 1   
    30    15    49 1   
    31    16    34 1   
    32    16    50 1   
    33    16    51 1   
    34    17    18 ar  
    35    17    22 ar  
    36    17    27 ar  
    37    18    30 ar  
    38    18    32 ar  
    39    19    22 ar  
    40    19    33 ar  
    41    19    60 1   
    42    20    21 ar  
    43    20    29 ar  
    44    20    61 1   
    45    21    23 ar  
    46    21    52 1   
    47    22    31 1   
    48    23    24 ar  
    49    23    53 1   
    50    24    25 ar  
    51    24    30 ar  
    52    25    26 ar  
    53    25    54 1   
    54    26    32 ar  
    55    26    55 1   
    56    27    28 ar  
    57    27    56 1   
    58    28    29 ar  
    59    28    57 1   
    60    29    30 ar  
    61    31    34 1   
    62    31    35 2   
    63    32    33 ar  
    64    33    58 1   
    65    34    59 1   
@<TRIPOS>SUBSTRUCTURE
     1 13M         1 TEMP              0 ****  ****    0 ROOT
