@<TRIPOS>MOLECULE
13N
   60    62     1     0     0
SMALL
No Charge or Current Charge


@<TRIPOS>ATOM
      1 CAL         -5.6360     0.9930     1.2460 ca         1 13N      -0.100500
      2 CAJ         -6.3740    -0.1950     1.3880 ca         1 13N      -0.111500
      3 CAI         -6.5340    -1.0600     0.2920 ca         1 13N      -0.108000
      4 CAK         -5.9560    -0.7360    -0.9470 ca         1 13N      -0.111500
      5 CAM         -5.2180     0.4530    -1.0900 ca         1 13N      -0.100500
      6 CBC         -5.0560     1.3240     0.0050 ca         1 13N      -0.115300
      7 CAT         -4.2470     2.6040    -0.1470 c3         1 13N       0.146300
      8 NAW         -2.8300     2.3600     0.1200 ns         1 13N      -0.511900
      9 CAZ         -1.8950     2.0540    -0.8410 c          1 13N       0.618100
     10 OAC         -2.1650     2.0360    -2.0320 o          1 13N      -0.573100
     11 CBG         -0.5040     1.7520    -0.2980 c3         1 13N      -0.249700
     12 CAS          0.6180     2.6570    -0.8760 c3         1 13N      -0.069400
     13 CAQ          0.7360     4.0460    -0.2010 c3         1 13N      -0.069400
     14 CAO          2.1830     4.5880    -0.2050 c3         1 13N      -0.040200
     15 CAG          3.1020     3.7650     0.6860 c2         1 13N      -0.225200
     16 CAH          4.0440     2.9090     0.2570 c2         1 13N      -0.209200
     17 CAP          4.9620     2.0950     1.1530 c3         1 13N      -0.058200
     18 CAR          5.3830     0.7190     0.5780 c3         1 13N       0.109000
     19 NAV          4.3810    -0.3430     0.7340 ns         1 13N      -0.497900
     20 CAY          3.3300    -0.5810    -0.1210 c          1 13N       0.628700
     21 OAB          3.0870     0.1360    -1.0790 o          1 13N      -0.580100
     22 CBF          2.5340    -1.8220     0.1590 ca         1 13N      -0.215600
     23 CBB          3.1550    -3.0790     0.0360 ca         1 13N       0.213100
     24 OAE          4.4730    -3.1760    -0.2880 oh         1 13N      -0.523100
     25 CAN          2.4240    -4.2580     0.2120 ca         1 13N      -0.306000
     26 CBA          1.0570    -4.1960     0.5050 ca         1 13N       0.207100
     27 OAD          0.3630    -5.3610     0.6590 oh         1 13N      -0.507100
     28 CBD          0.4150    -2.9470     0.6450 ca         1 13N       0.047000
     29 Cl1         -1.3180    -2.8980     1.0200 cl         1 13N      -0.177000
     30 CBE          1.1550    -1.7500     0.4850 ca         1 13N       0.050700
     31 CAU          0.4850    -0.3970     0.7420 c3         1 13N      -0.151100
     32 CAX         -0.1610     0.2710    -0.4790 c          1 13N       0.585100
     33 OAA         -0.3200    -0.3230    -1.5370 o          1 13N      -0.470100
     34 HAL         -5.5140     1.6550     2.1010 ha         1 13N       0.119000
     35 HAJ         -6.8200    -0.4460     2.3480 ha         1 13N       0.114500
     36 HAI         -7.1040    -1.9800     0.4030 ha         1 13N       0.112000
     37 HAK         -6.0770    -1.4050    -1.7950 ha         1 13N       0.114500
     38 HAM         -4.7700     0.6950    -2.0510 ha         1 13N       0.119000
     39 HAT1        -4.3730     3.0100    -1.1600 h1         1 13N       0.065200
     40 HAT2        -4.6130     3.3610     0.5590 h1         1 13N       0.065200
     41 HAW         -2.5160     2.3640     1.0820 hn         1 13N       0.308500
     42 HBG         -0.5080     1.9210     0.7850 hc         1 13N       0.061700
     43 HAS1         1.5670     2.1330    -0.7380 hc         1 13N       0.073200
     44 HAS2         0.5030     2.7730    -1.9620 hc         1 13N       0.073200
     45 HAQ1         0.0750     4.7530    -0.7170 hc         1 13N       0.039700
     46 HAQ2         0.3930     3.9990     0.8390 hc         1 13N       0.039700
     47 HAO1         2.5560     4.6050    -1.2370 hc         1 13N       0.049200
     48 HAO2         2.1760     5.6310     0.1370 hc         1 13N       0.049200
     49 HAG          2.9470     3.9220     1.7550 ha         1 13N       0.159000
     50 HAH          4.1990     2.7540    -0.8140 ha         1 13N       0.181000
     51 HAP1         5.8800     2.6730     1.3110 hc         1 13N       0.047200
     52 HAP2         4.5200     1.9560     2.1480 hc         1 13N       0.047200
     53 HAR1         5.6460     0.8210    -0.4830 h1         1 13N       0.052700
     54 HAR2         6.2890     0.3890     1.1050 h1         1 13N       0.052700
     55 HAV          4.5140    -1.0250     1.4710 hn         1 13N       0.311500
     56 HAE          4.7030    -4.1260    -0.3510 ho         1 13N       0.472000
     57 HAN          2.9130    -5.2230     0.1080 ha         1 13N       0.121000
     58 HAD          0.9840    -6.1070     0.5250 ho         1 13N       0.472000
     59 HAU1        -0.2690    -0.4310     1.5360 hc         1 13N       0.080700
     60 HAU2         1.1720     0.3260     1.1970 hc         1 13N       0.080700
@<TRIPOS>BOND
     1     1     2 ar  
     2     1     6 ar  
     3     1    34 1   
     4     2     3 ar  
     5     2    35 1   
     6     3     4 ar  
     7     3    36 1   
     8     4     5 ar  
     9     4    37 1   
    10     5     6 ar  
    11     5    38 1   
    12     6     7 1   
    13     7     8 1   
    14     7    39 1   
    15     7    40 1   
    16     8     9 1   
    17     8    41 1   
    18     9    10 2   
    19     9    11 1   
    20    11    12 1   
    21    11    32 1   
    22    11    42 1   
    23    12    13 1   
    24    12    43 1   
    25    12    44 1   
    26    13    14 1   
    27    13    45 1   
    28    13    46 1   
    29    14    15 1   
    30    14    47 1   
    31    14    48 1   
    32    15    16 2   
    33    15    49 1   
    34    16    17 1   
    35    16    50 1   
    36    17    18 1   
    37    17    51 1   
    38    17    52 1   
    39    18    19 1   
    40    18    53 1   
    41    18    54 1   
    42    19    20 1   
    43    19    55 1   
    44    20    21 2   
    45    20    22 1   
    46    22    23 ar  
    47    22    30 ar  
    48    23    24 1   
    49    23    25 ar  
    50    24    56 1   
    51    25    26 ar  
    52    25    57 1   
    53    26    27 1   
    54    26    28 ar  
    55    27    58 1   
    56    28    29 1   
    57    28    30 ar  
    58    30    31 1   
    59    31    32 1   
    60    31    59 1   
    61    31    60 1   
    62    32    33 2   
@<TRIPOS>SUBSTRUCTURE
     1 13N         1 TEMP              0 ****  ****    0 ROOT
