@<TRIPOS>MOLECULE
13N
   60    62     1     0     0
SMALL
abcg2


@<TRIPOS>ATOM
      1 CAL         -6.2620     0.9740     0.5110 ca         1 13N      -0.100500
      2 CAJ         -6.9470    -0.2080     0.7640 ca         1 13N      -0.111500
      3 CAI         -6.3380    -1.4310     0.5220 ca         1 13N      -0.108000
      4 CAK         -5.0410    -1.4640     0.0230 ca         1 13N      -0.111500
      5 CAM         -4.3610    -0.2820    -0.2340 ca         1 13N      -0.100500
      6 CBC         -4.9650     0.9500     0.0070 ca         1 13N      -0.115300
      7 CAT         -4.2410     2.2430    -0.2820 c3         1 13N       0.146300
      8 NAW         -2.8530     2.1820     0.1070 ns         1 13N      -0.511900
      9 CAZ         -1.8120     2.3800    -0.7210 c          1 13N       0.618100
     10 OAC         -1.9210     2.7610    -1.8730 o          1 13N      -0.573100
     11 CBG         -0.4740     2.0190    -0.0970 c3         1 13N      -0.249700
     12 CAS          0.7180     2.7910    -0.6750 c3         1 13N      -0.069400
     13 CAQ          0.9410     4.1510    -0.0200 c3         1 13N      -0.069400
     14 CAO          2.4080     4.5850    -0.1160 c3         1 13N      -0.040200
     15 CAG          3.2950     3.6950     0.6990 c2         1 13N      -0.225200
     16 CAH          4.2350     2.8910     0.2110 c2         1 13N      -0.209200
     17 CAP          5.1380     2.0230     1.0300 c3         1 13N      -0.058200
     18 CAR          5.3300     0.6080     0.4830 c3         1 13N       0.109000
     19 NAV          4.2010    -0.2840     0.6550 ns         1 13N      -0.497900
     20 CAY          3.2870    -0.5450    -0.2870 c          1 13N       0.628700
     21 OAB          3.1900     0.0670    -1.3410 o          1 13N      -0.580100
     22 CBF          2.3680    -1.6940     0.0280 ca         1 13N      -0.215600
     23 CBB          2.8020    -2.9890    -0.2520 ca         1 13N       0.213100
     24 OAE          4.0590    -3.1310    -0.7030 oh         1 13N      -0.523100
     25 CAN          1.9530    -4.0720    -0.0690 ca         1 13N      -0.306000
     26 CBA          0.6550    -3.8690     0.3820 ca         1 13N       0.207100
     27 OAD         -0.2080    -4.8730     0.5720 oh         1 13N      -0.507100
     28 CBD          0.2220    -2.5710     0.6500 ca         1 13N       0.047000
     29 CL1         -1.4090    -2.3520     1.1920 cl         1 13N      -0.177000
     30 CBE          1.0700    -1.4830     0.4850 ca         1 13N       0.050700
     31 CAU          0.6020    -0.1000     0.7990 c3         1 13N      -0.151100
     32 CAX         -0.2110     0.5380    -0.3050 c          1 13N       0.585100
     33 OAA         -0.6040    -0.0700    -1.2680 o          1 13N      -0.470100
     34 HAL         -6.7410     1.9250     0.7150 ha         1 13N       0.119000
     35 HAJ         -7.9550    -0.1710     1.1600 ha         1 13N       0.114500
     36 HAI         -6.8660    -2.3540     0.7260 ha         1 13N       0.112000
     37 HAK         -4.5550    -2.4120    -0.1640 ha         1 13N       0.114500
     38 HAM         -3.3500    -0.3240    -0.6200 ha         1 13N       0.119000
     39 HAT1        -4.2820     2.4670    -1.3480 h1         1 13N       0.065200
     40 HAT2        -4.7400     3.0690     0.2320 h1         1 13N       0.065200
     41 HAW         -2.6620     1.9170     1.0600 hn         1 13N       0.308500
     42 HBG         -0.5090     2.1980     0.9830 hc         1 13N       0.061700
     43 HAS1         1.6220     2.1920    -0.5440 hc         1 13N       0.073200
     44 HAS2         0.5880     2.8990    -1.7530 hc         1 13N       0.073200
     45 HAQ1         0.2970     4.9060    -0.4770 hc         1 13N       0.039700
     46 HAQ2         0.6590     4.1070     1.0370 hc         1 13N       0.039700
     47 HAO1         2.7300     4.5860    -1.1620 hc         1 13N       0.049200
     48 HAO2         2.4950     5.6160     0.2390 hc         1 13N       0.049200
     49 HAG          3.1170     3.7050     1.7740 ha         1 13N       0.159000
     50 HAH          4.4060     2.8740    -0.8630 ha         1 13N       0.181000
     51 HAP1         6.1360     2.4750     1.0520 hc         1 13N       0.047200
     52 HAP2         4.7980     1.9800     2.0680 hc         1 13N       0.047200
     53 HAR1         5.5870     0.6510    -0.5760 h1         1 13N       0.052700
     54 HAR2         6.1750     0.1470     0.9950 h1         1 13N       0.052700
     55 HAV          4.1930    -0.8590     1.4830 hn         1 13N       0.311500
     56 HAE          4.2680    -4.0600    -0.8530 ho         1 13N       0.472000
     57 HAN          2.2960    -5.0780    -0.2870 ha         1 13N       0.121000
     58 HAD          0.2110    -5.7200     0.3810 ho         1 13N       0.472000
     59 HAU1        -0.0330    -0.0930     1.6910 hc         1 13N       0.080700
     60 HAU2         1.4360     0.5560     1.0580 hc         1 13N       0.080700
@<TRIPOS>BOND
     1     1     2 ar  
     2     1     6 ar  
     3     1    34 1   
     4     2     3 ar  
     5     2    35 1   
     6     3     4 ar  
     7     3    36 1   
     8     4     5 ar  
     9     4    37 1   
    10     5     6 ar  
    11     5    38 1   
    12     6     7 1   
    13     7     8 1   
    14     7    39 1   
    15     7    40 1   
    16     8     9 1   
    17     8    41 1   
    18     9    10 2   
    19     9    11 1   
    20    11    12 1   
    21    11    32 1   
    22    11    42 1   
    23    12    13 1   
    24    12    43 1   
    25    12    44 1   
    26    13    14 1   
    27    13    45 1   
    28    13    46 1   
    29    14    15 1   
    30    14    47 1   
    31    14    48 1   
    32    15    16 2   
    33    15    49 1   
    34    16    17 1   
    35    16    50 1   
    36    17    18 1   
    37    17    51 1   
    38    17    52 1   
    39    18    19 1   
    40    18    53 1   
    41    18    54 1   
    42    19    20 1   
    43    19    55 1   
    44    20    21 2   
    45    20    22 1   
    46    22    23 ar  
    47    22    30 ar  
    48    23    24 1   
    49    23    25 ar  
    50    24    56 1   
    51    25    26 ar  
    52    25    57 1   
    53    26    27 1   
    54    26    28 ar  
    55    27    58 1   
    56    28    29 1   
    57    28    30 ar  
    58    30    31 1   
    59    31    32 1   
    60    31    59 1   
    61    31    60 1   
    62    32    33 2   
@<TRIPOS>SUBSTRUCTURE
     1 13N         1 TEMP              0 ****  ****    0 ROOT
