@<TRIPOS>MOLECULE
13Q
   51    54     1     0     0
SMALL
abcg2


@<TRIPOS>ATOM
      1 C1           1.6150     1.6020     0.3610 ca         1 13Q      -0.088500
      2 C2           2.3480     2.6190    -0.2360 ca         1 13Q      -0.111500
      3 C3           1.8250     3.2580    -1.3460 ca         1 13Q       0.116000
      4 C4           0.5900     2.8980    -1.8660 ca         1 13Q      -0.111500
      5 C5          -0.1230     1.8780    -1.2590 ca         1 13Q      -0.088500
      6 C6           0.3780     1.2210    -0.1390 ca         1 13Q      -0.089300
      7 C7          -0.3720     0.0600     0.4720 c6         1 13Q       0.181000
      8 N1          -1.7710     0.4060     0.7240 n          1 13Q      -0.417800
      9 C8          -2.8340    -0.4190     0.5310 c          1 13Q       0.570000
     10 O2          -5.2470    -2.2910    -1.3490 o          1 13Q      -0.728500
     11 C9          -2.6210    -1.7180    -0.2140 c6         1 13Q      -0.127700
     12 C10         -1.2030    -2.2430    -0.0500 c6         1 13Q      -0.068400
     13 C11         -0.2120    -1.1630    -0.4460 c6         1 13Q      -0.031400
     14 C12          1.2220    -1.6250    -0.4430 ca         1 13Q      -0.053300
     15 C13          2.0260    -1.4420    -1.5630 ca         1 13Q      -0.096000
     16 C14          1.7690    -2.2290     0.6870 ca         1 13Q      -0.103000
     17 C15          3.0920    -2.6390     0.6750 ca         1 13Q       0.117000
     18 O3          -4.9460    -0.5220    -2.6690 o          1 13Q      -0.728500
     19 C16          3.8970    -2.4630    -0.4400 ca         1 13Q      -0.114000
     20 C17          3.3490    -1.8590    -1.5610 ca         1 13Q      -0.105000
     21 C18         -1.9930     1.5970     1.5400 c3         1 13Q       0.120000
     22 C19         -1.9090     1.3270     3.0190 cx         1 13Q      -0.130700
     23 C20         -1.5990     2.4620     3.9460 cx         1 13Q      -0.140900
     24 C21         -0.5870     1.3790     3.7260 cx         1 13Q      -0.140900
     25 C22         -3.0240    -1.5240    -1.6830 c3         1 13Q      -0.202400
     26 C23         -4.5450    -1.4260    -1.9100 c          1 13Q       0.724000
     27 CL1          2.7270     4.5350    -2.0990 cl         1 13Q      -0.227000
     28 CL2          3.7570    -3.3900     2.0910 cl         1 13Q      -0.224000
     29 H1           2.0230     1.0970     1.2290 ha         1 13Q       0.132500
     30 H2           3.3120     2.9050     0.1630 ha         1 13Q       0.125500
     31 H3           0.1890     3.4060    -2.7320 ha         1 13Q       0.125500
     32 H4          -1.0900     1.6010    -1.6640 ha         1 13Q       0.132500
     33 H5           0.0960    -0.1760     1.4360 h1         1 13Q       0.041700
     34 H6          -3.3170    -2.4380     0.2200 hc         1 13Q       0.109700
     35 H8          -1.0350    -2.5570     0.9860 hc         1 13Q       0.041700
     36 H7          -1.0650    -3.1280    -0.6750 hc         1 13Q       0.041700
     37 H9          -0.4500    -0.8480    -1.4660 hc         1 13Q       0.080700
     38 H10          1.6140    -0.9660    -2.4440 ha         1 13Q       0.124000
     39 H11          1.1670    -2.3810     1.5740 ha         1 13Q       0.132000
     40 H12          4.9280    -2.7890    -0.4350 ha         1 13Q       0.120000
     41 H13          3.9650    -1.7120    -2.4390 ha         1 13Q       0.113000
     42 H15         -1.2500     2.3480     1.2650 h1         1 13Q       0.061200
     43 H14         -2.9640     2.0170     1.2850 h1         1 13Q       0.061200
     44 H16         -2.6180     0.5960     3.3910 hc         1 13Q       0.093700
     45 H18         -1.3990     3.4340     3.5090 hc         1 13Q       0.063950
     46 H17         -2.1160     2.5020     4.8960 hc         1 13Q       0.063950
     47 H20         -0.4070     0.6710     4.5250 hc         1 13Q       0.063950
     48 H19          0.2950     1.6300     3.1490 hc         1 13Q       0.063950
     49 H22         -2.5230    -0.6550    -2.1150 hc         1 13Q       0.019700
     50 H21         -2.6590    -2.3950    -2.2410 hc         1 13Q       0.019700
     51 O1          -3.9550    -0.1030     0.9120 o          1 13Q      -0.532000
@<TRIPOS>BOND
     1     1     2 ar  
     2     1     6 ar  
     3     1    29 1   
     4     2     3 ar  
     5     2    30 1   
     6     3     4 ar  
     7     3    27 1   
     8     4     5 ar  
     9     4    31 1   
    10     5     6 ar  
    11     5    32 1   
    12     6     7 1   
    13     7     8 1   
    14     7    13 1   
    15     7    33 1   
    16     8     9 1   
    17     8    21 1   
    18     9    11 1   
    19     9    51 2   
    20    10    26 1   
    21    11    12 1   
    22    11    25 1   
    23    11    34 1   
    24    12    13 1   
    25    12    35 1   
    26    12    36 1   
    27    13    14 1   
    28    13    37 1   
    29    14    15 ar  
    30    14    16 ar  
    31    15    20 ar  
    32    15    38 1   
    33    16    17 ar  
    34    16    39 1   
    35    17    19 ar  
    36    17    28 1   
    37    18    26 1   
    38    19    20 ar  
    39    19    40 1   
    40    20    41 1   
    41    21    22 1   
    42    21    42 1   
    43    21    43 1   
    44    22    23 1   
    45    22    24 1   
    46    22    44 1   
    47    23    24 1   
    48    23    45 1   
    49    23    46 1   
    50    24    47 1   
    51    24    48 1   
    52    25    26 1   
    53    25    49 1   
    54    25    50 1   
@<TRIPOS>SUBSTRUCTURE
     1 13Q         1 TEMP              0 ****  ****    0 ROOT
