@<TRIPOS>MOLECULE
13Q
   51    54     1     0     0
SMALL
No Charge or Current Charge


@<TRIPOS>ATOM
      1 C1           1.6170     1.6450     0.3190 ca         1 13Q      -0.088500
      2 C2           2.3200     2.7210    -0.2500 ca         1 13Q      -0.111500
      3 C3           1.7800     3.4100    -1.3470 ca         1 13Q       0.116000
      4 C4           0.5400     3.0250    -1.8800 ca         1 13Q      -0.111500
      5 C5          -0.1650     1.9490    -1.3130 ca         1 13Q      -0.088500
      6 C6           0.3690     1.2550    -0.2070 ca         1 13Q      -0.089300
      7 C7          -0.3910     0.0710     0.4100 c6         1 13Q       0.181000
      8 N1          -1.8060     0.4150     0.7560 n          1 13Q      -0.417800
      9 C8          -2.8990    -0.4630     0.5340 c          1 13Q       0.570000
     10 O2          -5.1740    -2.5410    -2.1310 o          1 13Q      -0.728500
     11 C9          -2.6760    -1.7640    -0.2690 c6         1 13Q      -0.127700
     12 C10         -1.2270    -2.2860    -0.1130 c6         1 13Q      -0.068400
     13 C11         -0.2080    -1.1890    -0.4810 c6         1 13Q      -0.031400
     14 C12          1.2420    -1.6990    -0.4290 ca         1 13Q      -0.053300
     15 C13          2.0660    -1.5980    -1.5690 ca         1 13Q      -0.096000
     16 C14          1.7750    -2.2460     0.7570 ca         1 13Q      -0.103000
     17 C15          3.1070    -2.6880     0.7970 ca         1 13Q       0.117000
     18 O3          -5.1280    -0.3900    -2.0210 o          1 13Q      -0.728500
     19 C16          3.9210    -2.5880    -0.3420 ca         1 13Q      -0.114000
     20 C17          3.4000    -2.0420    -1.5270 ca         1 13Q      -0.105000
     21 C18         -2.0230     1.6330     1.5780 c3         1 13Q       0.120000
     22 C19         -1.8310     1.3730     3.0680 cx         1 13Q      -0.130700
     23 C20         -1.5220     2.5080     4.0170 cx         1 13Q      -0.140900
     24 C21         -0.4650     1.4740     3.7090 cx         1 13Q      -0.140900
     25 C22         -3.0550    -1.5290    -1.7800 c3         1 13Q      -0.202400
     26 C23         -4.5790    -1.4810    -2.0040 c          1 13Q       0.724000
     27 Cl1          2.6610     4.7550    -2.0580 cl         1 13Q      -0.227000
     28 Cl2          3.7600    -3.3650     2.2830 cl         1 13Q      -0.224000
     29 H1           2.0450     1.1120     1.1660 ha         1 13Q       0.132500
     30 H2           3.2820     3.0190     0.1580 ha         1 13Q       0.125500
     31 H3           0.1250     3.5600    -2.7310 ha         1 13Q       0.125500
     32 H4          -1.1260     1.6550    -1.7310 ha         1 13Q       0.132500
     33 H5           0.0890    -0.1570     1.3720 h1         1 13Q       0.041700
     34 H6          -3.3880    -2.5100     0.1110 hc         1 13Q       0.109700
     35 H8          -1.0740    -2.6090     0.9260 hc         1 13Q       0.041700
     36 H7          -1.0710    -3.1760    -0.7380 hc         1 13Q       0.041700
     37 H9          -0.4110    -0.8920    -1.5180 hc         1 13Q       0.080700
     38 H10          1.6780    -1.1700    -2.4910 ha         1 13Q       0.124000
     39 H11          1.1650    -2.3260     1.6520 ha         1 13Q       0.132000
     40 H12          4.9520    -2.9310    -0.3060 ha         1 13Q       0.120000
     41 H13          4.0280    -1.9590    -2.4110 ha         1 13Q       0.113000
     42 H15         -1.3360     2.4270     1.2580 h1         1 13Q       0.061200
     43 H14         -3.0360     2.0190     1.4080 h1         1 13Q       0.061200
     44 H16         -2.4930     0.5950     3.4410 hc         1 13Q       0.093700
     45 H18         -1.3920     3.5040     3.5990 hc         1 13Q       0.063950
     46 H17         -1.9840     2.4850     5.0010 hc         1 13Q       0.063950
     47 H20         -0.2170     0.7540     4.4850 hc         1 13Q       0.063950
     48 H19          0.3730     1.7820     3.0890 hc         1 13Q       0.063950
     49 H22         -2.6040    -0.5810    -2.0960 hc         1 13Q       0.019700
     50 H21         -2.6580    -2.3950    -2.3230 hc         1 13Q       0.019700
     51 O1          -4.0060    -0.2240     0.9980 o          1 13Q      -0.532000
@<TRIPOS>BOND
     1     1     2 ar  
     2     1     6 ar  
     3     1    29 1   
     4     2     3 ar  
     5     2    30 1   
     6     3     4 ar  
     7     3    27 1   
     8     4     5 ar  
     9     4    31 1   
    10     5     6 ar  
    11     5    32 1   
    12     6     7 1   
    13     7     8 1   
    14     7    13 1   
    15     7    33 1   
    16     8     9 1   
    17     8    21 1   
    18     9    11 1   
    19     9    51 2   
    20    10    26 1   
    21    11    12 1   
    22    11    25 1   
    23    11    34 1   
    24    12    13 1   
    25    12    35 1   
    26    12    36 1   
    27    13    14 1   
    28    13    37 1   
    29    14    15 ar  
    30    14    16 ar  
    31    15    20 ar  
    32    15    38 1   
    33    16    17 ar  
    34    16    39 1   
    35    17    19 ar  
    36    17    28 1   
    37    18    26 1   
    38    19    20 ar  
    39    19    40 1   
    40    20    41 1   
    41    21    22 1   
    42    21    42 1   
    43    21    43 1   
    44    22    23 1   
    45    22    24 1   
    46    22    44 1   
    47    23    24 1   
    48    23    45 1   
    49    23    46 1   
    50    24    47 1   
    51    24    48 1   
    52    25    26 1   
    53    25    49 1   
    54    25    50 1   
@<TRIPOS>SUBSTRUCTURE
     1 13Q         1 TEMP              0 ****  ****    0 ROOT
