@<TRIPOS>MOLECULE
13R
   53    52     1     0     0
SMALL
No Charge or Current Charge


@<TRIPOS>ATOM
      1 C1           2.7150    -0.4280    -7.1310 c          1 13R       0.717000
      2 C2           2.1570     0.6220    -6.1530 c3         1 13R      -0.203400
      3 C3           1.0770    -0.0140    -5.2440 c3         1 13R      -0.054400
      4 C4           0.4670     0.9830    -4.2330 c3         1 13R      -0.079400
      5 C5          -0.6100     0.3450    -3.3280 c3         1 13R      -0.075400
      6 C6          -1.2190     1.3430    -2.3180 c3         1 13R      -0.076400
      7 C7          -2.2950     0.7050    -1.4130 c3         1 13R      -0.072400
      8 C8          -2.9050     1.7000    -0.4030 c3         1 13R      -0.051200
      9 C9          -3.9530     1.0560     0.4870 c2         1 13R      -0.181200
     10 C10         -3.7410     0.2940     1.5840 ce         1 13R      -0.204000
     11 C11         -2.4210    -0.0590     2.1230 ce         1 13R      -0.151000
     12 C12         -2.2560    -0.8180     3.2270 c2         1 13R      -0.246200
     13 C13         -0.9220    -1.2150     3.8330 c3         1 13R       0.182500
     14 C14         -0.3400    -0.0890     4.7180 c3         1 13R      -0.075400
     15 C15          1.0690    -0.3960     5.2800 c3         1 13R      -0.074400
     16 C16          1.6450     0.7590     6.1270 c3         1 13R      -0.076400
     17 C17          3.0520     0.4550     6.6880 c3         1 13R      -0.075400
     18 C18          3.6270     1.6080     7.5340 c3         1 13R      -0.088100
     19 O19          3.6690    -1.1010    -6.7710 o          1 13R      -0.743500
     20 O20          2.1510    -0.5740    -8.2050 o          1 13R      -0.743500
     21 O21         -1.1190    -2.3770     4.6660 os         1 13R      -0.244000
     22 O22         -1.4560    -3.5520     3.8390 oh         1 13R      -0.434000
     23 H21          1.6510     1.4270    -6.7010 hc         1 13R       0.013700
     24 H22          2.9460     0.9770    -5.4780 hc         1 13R       0.013700
     25 H31          1.5180    -0.8570    -4.6960 hc         1 13R       0.038200
     26 H32          0.2760    -0.4260    -5.8700 hc         1 13R       0.038200
     27 H41          0.0250     1.8250    -4.7800 hc         1 13R       0.023700
     28 H42          1.2680     1.3940    -3.6050 hc         1 13R       0.023700
     29 H51         -0.1670    -0.4960    -2.7800 hc         1 13R       0.035200
     30 H52         -1.4100    -0.0660    -3.9550 hc         1 13R       0.035200
     31 H61         -1.6610     2.1840    -2.8660 hc         1 13R       0.032200
     32 H62         -0.4180     1.7540    -1.6910 hc         1 13R       0.032200
     33 H71         -1.8540    -0.1390    -0.8680 hc         1 13R       0.040200
     34 H72         -3.0980     0.2940    -2.0390 hc         1 13R       0.040200
     35 H81         -3.3580     2.5330    -0.9560 hc         1 13R       0.043200
     36 H82         -2.1070     2.1410     0.2070 hc         1 13R       0.043200
     37 H91         -4.9770     1.2590     0.1670 ha         1 13R       0.166000
     38 H101        -4.6020    -0.1020     2.1260 ha         1 13R       0.167000
     39 H111        -1.5450     0.3190     1.5930 ha         1 13R       0.172000
     40 H121        -3.1210    -1.2020     3.7680 ha         1 13R       0.180000
     41 H131        -0.2050    -1.4360     3.0300 h1         1 13R       0.045700
     42 H141        -1.0300     0.1100     5.5470 hc         1 13R       0.052200
     43 H142        -0.2890     0.8310     4.1230 hc         1 13R       0.052200
     44 H151         1.7510    -0.6060     4.4450 hc         1 13R       0.043200
     45 H152         1.0280    -1.3040     5.8950 hc         1 13R       0.043200
     46 H161         0.9630     0.9690     6.9610 hc         1 13R       0.037200
     47 H162         1.6910     1.6680     5.5140 hc         1 13R       0.037200
     48 H171         3.7370     0.2470     5.8570 hc         1 13R       0.037700
     49 H172         3.0100    -0.4520     7.3040 hc         1 13R       0.037700
     50 H181         4.6230     1.3470     7.9090 hc         1 13R       0.030367
     51 H182         3.7140     2.5230     6.9350 hc         1 13R       0.030367
     52 H183         2.9800     1.8180     8.3940 hc         1 13R       0.030367
     53 H221        -0.5730    -3.9730     3.7380 ho         1 13R       0.435000
@<TRIPOS>BOND
     1     1     2 1   
     2     1    19 1   
     3     1    20 1   
     4     2     3 1   
     5     2    23 1   
     6     2    24 1   
     7     3     4 1   
     8     3    25 1   
     9     3    26 1   
    10     4     5 1   
    11     4    27 1   
    12     4    28 1   
    13     5     6 1   
    14     5    29 1   
    15     5    30 1   
    16     6     7 1   
    17     6    31 1   
    18     6    32 1   
    19     7     8 1   
    20     7    33 1   
    21     7    34 1   
    22     8     9 1   
    23     8    35 1   
    24     8    36 1   
    25     9    10 2   
    26     9    37 1   
    27    10    11 1   
    28    10    38 1   
    29    11    12 2   
    30    11    39 1   
    31    12    13 1   
    32    12    40 1   
    33    13    14 1   
    34    13    21 1   
    35    13    41 1   
    36    14    15 1   
    37    14    42 1   
    38    14    43 1   
    39    15    16 1   
    40    15    44 1   
    41    15    45 1   
    42    16    17 1   
    43    16    46 1   
    44    16    47 1   
    45    17    18 1   
    46    17    48 1   
    47    17    49 1   
    48    18    50 1   
    49    18    51 1   
    50    18    52 1   
    51    21    22 1   
    52    22    53 1   
@<TRIPOS>SUBSTRUCTURE
     1 13R         1 TEMP              0 ****  ****    0 ROOT
