@<TRIPOS>MOLECULE
13R
   53    52     1     0     0
SMALL
bcc


@<TRIPOS>ATOM
      1 C1           1.5200    -0.2340    -8.6910 c          1 13R       0.927600
      2 C2           1.2510     0.5880    -7.4180 c3         1 13R      -0.203400
      3 C3           0.4170    -0.0910    -6.3440 c3         1 13R      -0.054400
      4 C4           0.2140     0.7870    -5.1150 c3         1 13R      -0.079400
      5 C5          -0.6640     0.1430    -4.0480 c3         1 13R      -0.075400
      6 C6          -0.8430     1.0210    -2.8160 c3         1 13R      -0.076400
      7 C7          -1.8210     0.4450    -1.7990 c3         1 13R      -0.072400
      8 C8          -1.9530     1.3230    -0.5520 c3         1 13R      -0.051200
      9 C9          -3.0610     0.8760     0.3450 c2         1 13R      -0.131200
     10 C10         -2.9570     0.2940     1.5460 ce         1 13R      -0.154000
     11 C11         -1.7230    -0.0430     2.2370 ce         1 13R      -0.101000
     12 C12         -1.6890    -0.5850     3.4570 c2         1 13R      -0.196200
     13 C13         -0.4240    -0.8970     4.1910 c3         1 13R       0.159300
     14 C14         -0.2380     0.0090     5.4060 c3         1 13R      -0.075400
     15 C15          1.0710    -0.2100     6.1590 c3         1 13R      -0.074400
     16 C16          1.2630     0.7940     7.2880 c3         1 13R      -0.076400
     17 C17          2.5690     0.5970     8.0480 c3         1 13R      -0.075400
     18 C18          2.7510     1.6020     9.1770 c3         1 13R      -0.088100
     19 O19          1.1980    -1.4390    -8.6850 o          1 13R      -0.848800
     20 O20          2.0620     0.3780    -9.6350 o          1 13R      -0.848800
     21 O21         -0.4380    -2.2250     4.7020 os         1 13R      -0.220800
     22 O22         -0.4790    -3.1350     3.6300 oh         1 13R      -0.395000
     23 H21          0.7790     1.5340    -7.7070 hc         1 13R       0.013700
     24 H22          2.2210     0.8770    -6.9950 hc         1 13R       0.013700
     25 H31          0.8920    -1.0290    -6.0450 hc         1 13R       0.038200
     26 H32         -0.5610    -0.3670    -6.7520 hc         1 13R       0.038200
     27 H41         -0.2340     1.7410    -5.4150 hc         1 13R       0.023700
     28 H42          1.1890     1.0380    -4.6810 hc         1 13R       0.023700
     29 H51         -0.2340    -0.8200    -3.7530 hc         1 13R       0.035200
     30 H52         -1.6450    -0.0830    -4.4800 hc         1 13R       0.035200
     31 H61         -1.1970     2.0110    -3.1260 hc         1 13R       0.032200
     32 H62          0.1300     1.1830    -2.3390 hc         1 13R       0.032200
     33 H71         -1.5030    -0.5590    -1.5000 hc         1 13R       0.040200
     34 H72         -2.8020     0.3270    -2.2710 hc         1 13R       0.040200
     35 H81         -2.1600     2.3500    -0.8710 hc         1 13R       0.043200
     36 H82         -0.9960     1.3520    -0.0260 hc         1 13R       0.043200
     37 H91         -4.0620     1.0380    -0.0420 ha         1 13R       0.116000
     38 H101        -3.8750     0.0350     2.0660 ha         1 13R       0.117000
     39 H111        -0.7830     0.1500     1.7290 ha         1 13R       0.122000
     40 H121        -2.6190    -0.7870     3.9860 ha         1 13R       0.130000
     41 H131         0.4370    -0.7670     3.5200 h1         1 13R       0.045700
     42 H141        -1.0900    -0.1050     6.0840 hc         1 13R       0.052200
     43 H142        -0.2760     1.0390     5.0400 hc         1 13R       0.052200
     44 H151         1.9090    -0.1310     5.4590 hc         1 13R       0.043200
     45 H152         1.1080    -1.2230     6.5700 hc         1 13R       0.043200
     46 H161         0.4220     0.7200     7.9870 hc         1 13R       0.037200
     47 H162         1.2300     1.8110     6.8820 hc         1 13R       0.037200
     48 H171         3.4090     0.6730     7.3500 hc         1 13R       0.037700
     49 H172         2.6030    -0.4200     8.4520 hc         1 13R       0.037700
     50 H181         3.6920     1.4470     9.7070 hc         1 13R       0.030367
     51 H182         2.7520     2.6250     8.7960 hc         1 13R       0.030367
     52 H183         1.9430     1.5240     9.9060 hc         1 13R       0.030367
     53 H221         0.4530    -3.3720     3.5220 ho         1 13R       0.396000
@<TRIPOS>BOND
     1     1     2 1   
     2     1    19 1   
     3     1    20 1   
     4     2     3 1   
     5     2    23 1   
     6     2    24 1   
     7     3     4 1   
     8     3    25 1   
     9     3    26 1   
    10     4     5 1   
    11     4    27 1   
    12     4    28 1   
    13     5     6 1   
    14     5    29 1   
    15     5    30 1   
    16     6     7 1   
    17     6    31 1   
    18     6    32 1   
    19     7     8 1   
    20     7    33 1   
    21     7    34 1   
    22     8     9 1   
    23     8    35 1   
    24     8    36 1   
    25     9    10 2   
    26     9    37 1   
    27    10    11 1   
    28    10    38 1   
    29    11    12 2   
    30    11    39 1   
    31    12    13 1   
    32    12    40 1   
    33    13    14 1   
    34    13    21 1   
    35    13    41 1   
    36    14    15 1   
    37    14    42 1   
    38    14    43 1   
    39    15    16 1   
    40    15    44 1   
    41    15    45 1   
    42    16    17 1   
    43    16    46 1   
    44    16    47 1   
    45    17    18 1   
    46    17    48 1   
    47    17    49 1   
    48    18    50 1   
    49    18    51 1   
    50    18    52 1   
    51    21    22 1   
    52    22    53 1   
@<TRIPOS>SUBSTRUCTURE
     1 13R         1 TEMP              0 ****  ****    0 ROOT
