@<TRIPOS>MOLECULE
13S
   53    52     1     0     0
SMALL
No Charge or Current Charge


@<TRIPOS>ATOM
      1 C1           2.8100    -3.1270    -5.1730 c          1 13S       0.716000
      2 C2           2.1820    -1.7300    -5.0090 c3         1 13S      -0.203400
      3 C3           1.0990    -1.7570    -3.9040 c3         1 13S      -0.053400
      4 C4           0.4280    -0.3840    -3.6750 c3         1 13S      -0.079400
      5 C5          -0.6540    -0.4140    -2.5730 c3         1 13S      -0.075400
      6 C6          -1.3110     0.9620    -2.3310 c3         1 13S      -0.076400
      7 C7          -2.3950     0.9300    -1.2320 c3         1 13S      -0.072400
      8 C8          -3.0320     2.3110    -0.9660 c3         1 13S      -0.053200
      9 C9          -4.0810     2.2670     0.1290 c2         1 13S      -0.173200
     10 C10         -3.8710     2.2270     1.4650 ce         1 13S      -0.214000
     11 C11         -2.5520     2.2170     2.1110 ce         1 13S      -0.134000
     12 C12         -2.3890     2.1440     3.4490 c2         1 13S      -0.252200
     13 C13         -1.0570     2.1140     4.1710 c3         1 13S       0.180500
     14 C14         -0.5320     0.6600     4.3020 c3         1 13S      -0.103400
     15 C15          0.9270     0.5230     4.7990 c3         1 13S      -0.073400
     16 C16          1.4360    -0.9360     4.7700 c3         1 13S      -0.077400
     17 C17          2.8920    -1.0790     5.2640 c3         1 13S      -0.075400
     18 C18          3.4000    -2.5340     5.2340 c3         1 13S      -0.088100
     19 O19          2.2860    -3.9080    -5.9520 o          1 13S      -0.744000
     20 O20          3.7770    -3.4100    -4.4810 o          1 13S      -0.744000
     21 O21         -1.2830     2.6690     5.4850 os         1 13S      -0.232000
     22 O22         -0.0810     3.3750     5.9640 oh         1 13S      -0.443000
     23 H21          1.6650    -1.4320    -5.9300 hc         1 13S       0.014700
     24 H22          2.9370    -1.0080    -4.6730 hc         1 13S       0.014700
     25 H31          1.5520    -2.0970    -2.9640 hc         1 13S       0.037700
     26 H32          0.3300    -2.4930    -4.1710 hc         1 13S       0.037700
     27 H41         -0.0240    -0.0420    -4.6140 hc         1 13S       0.024200
     28 H42          1.1970     0.3510    -3.4030 hc         1 13S       0.024200
     29 H51         -0.2040    -0.7670    -1.6360 hc         1 13S       0.034200
     30 H52         -1.4290    -1.1400    -2.8490 hc         1 13S       0.034200
     31 H61         -1.7580     1.3190    -3.2680 hc         1 13S       0.033200
     32 H62         -0.5350     1.6860    -2.0500 hc         1 13S       0.033200
     33 H71         -1.9520     0.5500    -0.3030 hc         1 13S       0.038200
     34 H72         -3.1820     0.2220    -1.5200 hc         1 13S       0.038200
     35 H81         -3.4880     2.6740    -1.8960 hc         1 13S       0.048200
     36 H82         -2.2480     3.0350    -0.7120 hc         1 13S       0.048200
     37 H91         -5.1060     2.2670    -0.2500 ha         1 13S       0.165000
     38 H101        -4.7330     2.1950     2.1340 ha         1 13S       0.162000
     39 H111        -1.6750     2.2660     1.4630 ha         1 13S       0.192000
     40 H121        -3.2550     2.0890     4.1080 ha         1 13S       0.169000
     41 H131        -0.3360     2.7210     3.6050 h1         1 13S       0.069700
     42 H141        -0.6010     0.1870     3.3150 hc         1 13S       0.049700
     43 H142        -1.1990     0.0930     4.9630 hc         1 13S       0.049700
     44 H151         1.0040     0.8990     5.8250 hc         1 13S       0.037200
     45 H152         1.5810     1.1450     4.1750 hc         1 13S       0.037200
     46 H161         1.3650    -1.3220     3.7450 hc         1 13S       0.038200
     47 H162         0.7810    -1.5580     5.3920 hc         1 13S       0.038200
     48 H171         2.9680    -0.6970     6.2890 hc         1 13S       0.036700
     49 H172         3.5500    -0.4600     4.6420 hc         1 13S       0.036700
     50 H181         4.4350    -2.5850     5.5920 hc         1 13S       0.030700
     51 H182         2.7830    -3.1730     5.8780 hc         1 13S       0.030700
     52 H183         3.3690    -2.9350     4.2140 hc         1 13S       0.030700
     53 H221         0.2910     2.7120     6.5860 ho         1 13S       0.436000
@<TRIPOS>BOND
     1     1     2 1   
     2     1    19 1   
     3     1    20 1   
     4     2     3 1   
     5     2    23 1   
     6     2    24 1   
     7     3     4 1   
     8     3    25 1   
     9     3    26 1   
    10     4     5 1   
    11     4    27 1   
    12     4    28 1   
    13     5     6 1   
    14     5    29 1   
    15     5    30 1   
    16     6     7 1   
    17     6    31 1   
    18     6    32 1   
    19     7     8 1   
    20     7    33 1   
    21     7    34 1   
    22     8     9 1   
    23     8    35 1   
    24     8    36 1   
    25     9    10 2   
    26     9    37 1   
    27    10    11 1   
    28    10    38 1   
    29    11    12 2   
    30    11    39 1   
    31    12    13 1   
    32    12    40 1   
    33    13    14 1   
    34    13    21 1   
    35    13    41 1   
    36    14    15 1   
    37    14    42 1   
    38    14    43 1   
    39    15    16 1   
    40    15    44 1   
    41    15    45 1   
    42    16    17 1   
    43    16    46 1   
    44    16    47 1   
    45    17    18 1   
    46    17    48 1   
    47    17    49 1   
    48    18    50 1   
    49    18    51 1   
    50    18    52 1   
    51    21    22 1   
    52    22    53 1   
@<TRIPOS>SUBSTRUCTURE
     1 13S         1 TEMP              0 ****  ****    0 ROOT
