@<TRIPOS>MOLECULE
13S
   53    52     1     0     0
SMALL
abcg2


@<TRIPOS>ATOM
      1 C1           0.7090    -0.4040    -9.3160 c          1 13S       0.716000
      2 C2           0.8670     0.1920    -7.9070 c3         1 13S      -0.203400
      3 C3          -0.1700    -0.2260    -6.8770 c3         1 13S      -0.053400
      4 C4           0.0420     0.4450    -5.5250 c3         1 13S      -0.079400
      5 C5          -0.9890     0.0410    -4.4780 c3         1 13S      -0.075400
      6 C6          -0.7930     0.7430    -3.1400 c3         1 13S      -0.076400
      7 C7          -1.8170     0.3340    -2.0900 c3         1 13S      -0.072400
      8 C8          -1.6420     1.0810    -0.7670 c3         1 13S      -0.053200
      9 C9          -2.6890     0.7060     0.2310 c2         1 13S      -0.173200
     10 C10         -2.5120     0.2510     1.4770 ce         1 13S      -0.214000
     11 C11         -1.2410     0.0440     2.1530 ce         1 13S      -0.134000
     12 C12         -1.1670    -0.4090     3.4080 c2         1 13S      -0.252200
     13 C13          0.0740    -0.6360     4.2160 c3         1 13S       0.180500
     14 C14         -0.0730     0.0110     5.5940 c3         1 13S      -0.103400
     15 C15          1.0970    -0.1880     6.5510 c3         1 13S      -0.073400
     16 C16          0.7620     0.2790     7.9630 c3         1 13S      -0.077400
     17 C17          1.9170     0.1170     8.9440 c3         1 13S      -0.075400
     18 C18          1.5620     0.5740    10.3520 c3         1 13S      -0.088100
     19 O19         -0.2560    -1.1660    -9.5250 o          1 13S      -0.744000
     20 O20          1.5750    -0.0640   -10.1520 o          1 13S      -0.744000
     21 O21          1.1790    -0.1220     3.4830 os         1 13S      -0.232000
     22 O22          2.3260    -0.8970     3.7300 oh         1 13S      -0.443000
     23 H21          0.8690     1.2850    -8.0010 hc         1 13S       0.014700
     24 H22          1.8710    -0.0580    -7.5420 hc         1 13S       0.014700
     25 H31         -0.1500    -1.3120    -6.7490 hc         1 13S       0.037700
     26 H32         -1.1720     0.0150    -7.2440 hc         1 13S       0.037700
     27 H41          0.0190     1.5330    -5.6520 hc         1 13S       0.024200
     28 H42          1.0460     0.2070    -5.1520 hc         1 13S       0.024200
     29 H51         -0.9510    -1.0440    -4.3290 hc         1 13S       0.034200
     30 H52         -1.9940     0.2600    -4.8560 hc         1 13S       0.034200
     31 H61         -0.8430     1.8270    -3.2910 hc         1 13S       0.033200
     32 H62          0.2150     0.5360    -2.7650 hc         1 13S       0.033200
     33 H71         -1.7480    -0.7440    -1.9100 hc         1 13S       0.038200
     34 H72         -2.8260     0.5160    -2.4750 hc         1 13S       0.038200
     35 H81         -1.7130     2.1570    -0.9660 hc         1 13S       0.048200
     36 H82         -0.6360     0.9080    -0.3780 hc         1 13S       0.048200
     37 H91         -3.7130     0.8130    -0.1160 ha         1 13S       0.165000
     38 H101        -3.3990     0.0180     2.0590 ha         1 13S       0.162000
     39 H111        -0.3320     0.2760     1.6090 ha         1 13S       0.192000
     40 H121        -2.0880    -0.6370     3.9380 ha         1 13S       0.169000
     41 H131         0.2080    -1.7180     4.3480 h1         1 13S       0.069700
     42 H141        -0.9730    -0.4130     6.0510 hc         1 13S       0.049700
     43 H142        -0.2720     1.0800     5.4680 hc         1 13S       0.049700
     44 H151         1.9740     0.3710     6.2070 hc         1 13S       0.037200
     45 H152         1.3850    -1.2440     6.5770 hc         1 13S       0.037200
     46 H161        -0.1070    -0.2790     8.3300 hc         1 13S       0.038200
     47 H162         0.4550     1.3300     7.9350 hc         1 13S       0.038200
     48 H171         2.7820     0.6800     8.5810 hc         1 13S       0.036700
     49 H172         2.2270    -0.9320     8.9660 hc         1 13S       0.036700
     50 H181         2.4000     0.4480    11.0380 hc         1 13S       0.030700
     51 H182         1.2800     1.6280    10.3660 hc         1 13S       0.030700
     52 H183         0.7210     0.0030    10.7490 hc         1 13S       0.030700
     53 H221         2.7890    -0.3940     4.4140 ho         1 13S       0.436000
@<TRIPOS>BOND
     1     1     2 1   
     2     1    19 1   
     3     1    20 1   
     4     2     3 1   
     5     2    23 1   
     6     2    24 1   
     7     3     4 1   
     8     3    25 1   
     9     3    26 1   
    10     4     5 1   
    11     4    27 1   
    12     4    28 1   
    13     5     6 1   
    14     5    29 1   
    15     5    30 1   
    16     6     7 1   
    17     6    31 1   
    18     6    32 1   
    19     7     8 1   
    20     7    33 1   
    21     7    34 1   
    22     8     9 1   
    23     8    35 1   
    24     8    36 1   
    25     9    10 2   
    26     9    37 1   
    27    10    11 1   
    28    10    38 1   
    29    11    12 2   
    30    11    39 1   
    31    12    13 1   
    32    12    40 1   
    33    13    14 1   
    34    13    21 1   
    35    13    41 1   
    36    14    15 1   
    37    14    42 1   
    38    14    43 1   
    39    15    16 1   
    40    15    44 1   
    41    15    45 1   
    42    16    17 1   
    43    16    46 1   
    44    16    47 1   
    45    17    18 1   
    46    17    48 1   
    47    17    49 1   
    48    18    50 1   
    49    18    51 1   
    50    18    52 1   
    51    21    22 1   
    52    22    53 1   
@<TRIPOS>SUBSTRUCTURE
     1 13S         1 TEMP              0 ****  ****    0 ROOT
