@<TRIPOS>MOLECULE
13T
   92    93     1     0     0
SMALL
No Charge or Current Charge


@<TRIPOS>ATOM
      1 O1          -3.4900    -1.1320     6.5350 os         1 13T      -0.431100
      2 O2          -3.8550    -3.2600     5.7600 o          1 13T      -0.500000
      3 O3          -2.6220    -4.4650     7.8730 oh         1 13T      -0.700000
      4 O4          -4.8250    -2.4580     9.0360 os         1 13T      -0.462000
      5 O5          -2.8020    -5.6180    10.5490 o          1 13T      -0.499100
      6 O6          -5.9220    -6.8670     9.6750 oh         1 13T      -0.645000
      7 O7          -9.3960    -1.6670     8.2740 o          1 13T      -0.525100
      8 O9          -5.0230     1.2490     7.8570 o          1 13T      -0.523100
      9 O10         -3.3000     3.1250     5.8210 oh         1 13T      -0.712000
     10 C1          -3.4460    -2.5000     6.6320 c          1 13T       0.573100
     11 C2          -2.7200    -3.0150     7.9100 c3         1 13T       0.127300
     12 C3          -3.3950    -2.4730     9.2220 c3         1 13T       0.180300
     13 C4          -3.0500    -3.1920    10.5780 c3         1 13T      -0.179700
     14 C5          -3.5620    -4.6620    10.6720 c          1 13T       0.590100
     15 C6          -5.0750    -4.8910    10.9000 c3         1 13T      -0.140700
     16 C7          -5.7210    -5.4540     9.5930 c3         1 13T       0.223500
     17 C8          -7.0330    -4.7870     9.1590 c2         1 13T      -0.133400
     18 C9          -7.1610    -4.2500     7.9240 c2         1 13T      -0.219200
     19 C10         -8.4020    -3.6340     7.2770 c3         1 13T      -0.124500
     20 C11         -8.5250    -2.1070     7.5320 c          1 13T       0.583100
     21 C12         -7.5390    -1.1620     6.8040 c3         1 13T      -0.190400
     22 C13         -7.7680     0.3540     7.0500 c3         1 13T      -0.058400
     23 C14         -6.8250     1.2930     6.2430 c3         1 13T      -0.162700
     24 C15         -5.3420     1.1760     6.6760 c          1 13T       0.583100
     25 C16         -4.3030     0.9370     5.5660 c3         1 13T      -0.202700
     26 C17         -2.9930     1.7230     5.8250 c3         1 13T       0.207300
     27 C18         -1.8470     1.4200     4.8350 cx         1 13T       0.103000
     28 C19         -0.8220     0.3820     5.2280 cx         1 13T       0.099300
     29 C20         -0.0700    -0.4740     4.2070 c3         1 13T      -0.017500
     30 C21         -0.9660    -1.6050     3.7210 c2         1 13T      -0.228200
     31 C22         -1.4020    -1.8510     2.4710 c2         1 13T      -0.208200
     32 C23         -1.1140    -1.0700     1.2010 c3         1 13T      -0.062900
     33 C24         -1.5470    -3.0600    10.9400 c3         1 13T      -0.082100
     34 C25         -5.3350    -5.7090    12.1960 c3         1 13T      -0.075100
     35 C26         -8.1430    -4.8400    10.2080 c3         1 13T      -0.055900
     36 C27         -8.4790    -3.9950     5.7740 c3         1 13T      -0.082100
     37 C28         -7.2760     2.7710     6.3420 c3         1 13T      -0.089100
     38 C29         -4.1160    -0.5800     5.3650 c3         1 13T       0.169600
     39 C30         -2.1710     1.7040     3.3620 c3         1 13T      -0.076100
     40 C31          1.2280    -1.0490     4.8120 c3         1 13T      -0.081100
     41 C32         -5.5620    -1.4910     9.8200 c3         1 13T       0.132900
     42 O11         -0.5130     1.7950     5.2590 op         1 13T      -0.419000
     43 HO3         -2.9480    -4.7440     6.9830 ho         1 13T       0.535000
     44 HO6         -6.4370    -7.1150     8.8780 ho         1 13T       0.441000
     45 H2          -1.7110    -2.5840     7.8700 h1         1 13T       0.074700
     46 H3          -3.0490    -1.4340     9.3140 h1         1 13T       0.051700
     47 H4          -3.6170    -2.6350    11.3300 hc         1 13T       0.059700
     48 H6          -5.5210    -3.9100    11.0710 hc         1 13T       0.061700
     49 H7          -5.0030    -5.2630     8.7840 h1         1 13T       0.045700
     50 H9          -6.2980    -4.2640     7.2540 ha         1 13T       0.178000
     51 H10         -9.2920    -4.0800     7.7320 hc         1 13T       0.077700
     52 H121        -6.5240    -1.4840     7.0590 hc         1 13T       0.069200
     53 H122        -7.5690    -1.3960     5.7350 hc         1 13T       0.069200
     54 H131        -8.8060     0.5900     6.7810 hc         1 13T       0.064700
     55 H132        -7.6710     0.5690     8.1220 hc         1 13T       0.064700
     56 H14         -6.9000     1.0260     5.1820 hc         1 13T       0.055700
     57 H16         -4.7460     1.2820     4.6250 hc         1 13T       0.088700
     58 H17         -2.6310     1.4410     6.8240 h1         1 13T       0.063700
     59 H19         -0.9330    -0.0870     6.2060 h1         1 13T       0.079700
     60 H20          0.2390     0.1650     3.3750 hc         1 13T       0.064700
     61 H21         -1.2680    -2.2860     4.5190 ha         1 13T       0.164000
     62 H22         -2.0440    -2.7180     2.2980 ha         1 13T       0.173000
     63 H231        -0.4330    -0.2270     1.3540 hc         1 13T       0.041367
     64 H232        -2.0410    -0.6690     0.7750 hc         1 13T       0.041367
     65 H233        -0.6590    -1.7200     0.4440 hc         1 13T       0.041367
     66 H241        -1.2410    -2.0070    10.9510 hc         1 13T       0.044367
     67 H242        -1.3530    -3.4780    11.9360 hc         1 13T       0.044367
     68 H243        -0.9170    -3.5920    10.2170 hc         1 13T       0.044367
     69 H251        -4.9260    -5.1830    13.0670 hc         1 13T       0.042367
     70 H252        -6.4090    -5.8540    12.3650 hc         1 13T       0.042367
     71 H253        -4.8600    -6.6960    12.1470 hc         1 13T       0.042367
     72 H261        -8.3780    -5.8740    10.4880 hc         1 13T       0.046700
     73 H262        -9.0770    -4.3810     9.8700 hc         1 13T       0.046700
     74 H263        -7.8570    -4.3060    11.1200 hc         1 13T       0.046700
     75 H271        -9.3630    -3.5400     5.3100 hc         1 13T       0.040367
     76 H272        -7.5890    -3.6560     5.2310 hc         1 13T       0.040367
     77 H273        -8.5540    -5.0820     5.6470 hc         1 13T       0.040367
     78 H281        -8.3010     2.8920     5.9690 hc         1 13T       0.046033
     79 H282        -7.2450     3.1210     7.3810 hc         1 13T       0.046033
     80 H283        -6.6210     3.4160     5.7440 hc         1 13T       0.046033
     81 H291        -5.0990    -1.0390     5.1940 h1         1 13T       0.063700
     82 H292        -3.5080    -0.7770     4.4730 h1         1 13T       0.063700
     83 H301        -1.2610     1.8640     2.7730 hc         1 13T       0.050033
     84 H302        -2.7190     0.8690     2.9130 hc         1 13T       0.050033
     85 H303        -2.7890     2.6020     3.2490 hc         1 13T       0.050033
     86 H311         1.0100    -1.6940     5.6710 hc         1 13T       0.041033
     87 H312         1.8880    -0.2400     5.1480 hc         1 13T       0.041033
     88 H313         1.7690    -1.6420     4.0650 hc         1 13T       0.041033
     89 H321        -6.6230    -1.5070     9.5440 h1         1 13T       0.042033
     90 H322        -5.1810    -0.4780     9.6520 h1         1 13T       0.042033
     91 H323        -5.5020    -1.6980    10.8940 h1         1 13T       0.042033
     92 HO10        -2.4420     3.5970     5.9390 ho         1 13T       0.519000
@<TRIPOS>BOND
     1     1    10 1   
     2     1    38 1   
     3     2    10 2   
     4     3    11 1   
     5     3    43 1   
     6     4    12 1   
     7     4    41 1   
     8     5    14 2   
     9     6    16 1   
    10     6    44 1   
    11     7    20 2   
    12     8    24 2   
    13     9    26 1   
    14     9    92 1   
    15    10    11 1   
    16    11    12 1   
    17    11    45 1   
    18    12    13 1   
    19    12    46 1   
    20    13    14 1   
    21    13    33 1   
    22    13    47 1   
    23    14    15 1   
    24    15    16 1   
    25    15    34 1   
    26    15    48 1   
    27    16    17 1   
    28    16    49 1   
    29    17    18 2   
    30    17    35 1   
    31    18    19 1   
    32    18    50 1   
    33    19    20 1   
    34    19    36 1   
    35    19    51 1   
    36    20    21 1   
    37    21    22 1   
    38    21    52 1   
    39    21    53 1   
    40    22    23 1   
    41    22    54 1   
    42    22    55 1   
    43    23    24 1   
    44    23    37 1   
    45    23    56 1   
    46    24    25 1   
    47    25    26 1   
    48    25    38 1   
    49    25    57 1   
    50    26    27 1   
    51    26    58 1   
    52    27    28 1   
    53    27    39 1   
    54    27    42 1   
    55    28    29 1   
    56    28    42 1   
    57    28    59 1   
    58    29    30 1   
    59    29    40 1   
    60    29    60 1   
    61    30    31 2   
    62    30    61 1   
    63    31    32 1   
    64    31    62 1   
    65    32    63 1   
    66    32    64 1   
    67    32    65 1   
    68    33    66 1   
    69    33    67 1   
    70    33    68 1   
    71    34    69 1   
    72    34    70 1   
    73    34    71 1   
    74    35    72 1   
    75    35    73 1   
    76    35    74 1   
    77    36    75 1   
    78    36    76 1   
    79    36    77 1   
    80    37    78 1   
    81    37    79 1   
    82    37    80 1   
    83    38    81 1   
    84    38    82 1   
    85    39    83 1   
    86    39    84 1   
    87    39    85 1   
    88    40    86 1   
    89    40    87 1   
    90    40    88 1   
    91    41    89 1   
    92    41    90 1   
    93    41    91 1   
@<TRIPOS>SUBSTRUCTURE
     1 13T         1 TEMP              0 ****  ****    0 ROOT
