@<TRIPOS>MOLECULE
13T
   92    93     1     0     0
SMALL
abcg2


@<TRIPOS>ATOM
      1 O1          -3.5860    -1.1630     6.3470 os         1 13T      -0.431100
      2 O2          -4.2290    -3.1480     5.5440 o          1 13T      -0.500000
      3 O3          -3.0560    -4.4790     7.5210 oh         1 13T      -0.700000
      4 O4          -4.7210    -2.3110     8.8340 os         1 13T      -0.462000
      5 O5          -2.8240    -5.6570    10.3470 o          1 13T      -0.499100
      6 O6          -5.8520    -6.7360     9.6780 oh         1 13T      -0.645000
      7 O7          -9.1350    -1.4860     8.5730 o          1 13T      -0.525100
      8 O9          -5.2390     1.4780     7.6890 o          1 13T      -0.523100
      9 O10         -3.1430     3.0490     6.1930 oh         1 13T      -0.712000
     10 C1          -3.6600    -2.4780     6.3690 c          1 13T       0.573100
     11 C2          -2.8950    -3.0950     7.5290 c3         1 13T       0.127300
     12 C3          -3.3310    -2.4800     8.8640 c3         1 13T       0.180300
     13 C4          -2.8310    -3.2880    10.0840 c3         1 13T      -0.179700
     14 C5          -3.4850    -4.6460    10.3040 c          1 13T       0.590100
     15 C6          -4.9810    -4.6990    10.6130 c3         1 13T      -0.140700
     16 C7          -5.7420    -5.3500     9.4310 c3         1 13T       0.223500
     17 C8          -7.0990    -4.7270     9.1830 c2         1 13T      -0.133400
     18 C9          -7.3280    -4.1870     7.9820 c2         1 13T      -0.219200
     19 C10         -8.5950    -3.5380     7.4970 c3         1 13T      -0.124500
     20 C11         -8.4930    -2.0310     7.7030 c          1 13T       0.583100
     21 C12         -7.5490    -1.2510     6.8180 c3         1 13T      -0.190400
     22 C13         -7.7600     0.2560     6.8750 c3         1 13T      -0.058400
     23 C14         -6.8100     1.0240     5.9560 c3         1 13T      -0.162700
     24 C15         -5.4150     1.1730     6.5320 c          1 13T       0.583100
     25 C16         -4.2550     1.0000     5.5640 c3         1 13T      -0.202700
     26 C17         -2.9690     1.6530     6.0890 c3         1 13T       0.207300
     27 C18         -1.7910     1.4090     5.1650 cx         1 13T       0.103000
     28 C19         -0.8510     0.3470     5.5320 cx         1 13T       0.099300
     29 C20         -0.0180    -0.4480     4.5540 c3         1 13T      -0.017500
     30 C21         -0.7100    -1.7620     4.3230 c2         1 13T      -0.228200
     31 C22         -1.3700    -2.1540     3.2350 c2         1 13T      -0.208200
     32 C23         -1.5820    -1.3910     1.9680 c3         1 13T      -0.062900
     33 C24         -1.3100    -3.3700    10.0750 c3         1 13T      -0.082100
     34 C25         -5.1800    -5.3960    11.9610 c3         1 13T      -0.075100
     35 C26         -8.1010    -4.7750    10.2960 c3         1 13T      -0.055900
     36 C27         -8.8800    -3.9160     6.0420 c3         1 13T      -0.082100
     37 C28         -7.3200     2.4470     5.6880 c3         1 13T      -0.089100
     38 C29         -4.1150    -0.4740     5.2100 c3         1 13T       0.169600
     39 C30         -1.9670     1.8810     3.7430 c3         1 13T      -0.076100
     40 C31          1.3900    -0.6630     5.1120 c3         1 13T      -0.081100
     41 C32         -5.1960    -1.3070     9.7010 c3         1 13T       0.132900
     42 O11         -0.5340     1.7090     5.7640 op         1 13T      -0.419000
     43 HO3         -3.4550    -4.7430     6.6810 ho         1 13T       0.535000
     44 HO6         -6.2250    -7.1410     8.8880 ho         1 13T       0.441000
     45 H2          -1.8360    -2.8350     7.3820 h1         1 13T       0.074700
     46 H3          -2.8390    -1.4980     8.9340 h1         1 13T       0.051700
     47 H4          -3.1230    -2.6970    10.9630 hc         1 13T       0.059700
     48 H6          -5.3550    -3.6830    10.7170 hc         1 13T       0.061700
     49 H7          -5.1510    -5.1810     8.5260 h1         1 13T       0.045700
     50 H9          -6.5170    -4.1970     7.2580 ha         1 13T       0.178000
     51 H10         -9.4400    -3.8620     8.1070 hc         1 13T       0.077700
     52 H121        -6.5320    -1.5320     7.1180 hc         1 13T       0.069200
     53 H122        -7.6510    -1.6020     5.7870 hc         1 13T       0.069200
     54 H131        -8.7840     0.4800     6.5660 hc         1 13T       0.064700
     55 H132        -7.6590     0.6260     7.8970 hc         1 13T       0.064700
     56 H14         -6.7480     0.5120     4.9900 hc         1 13T       0.055700
     57 H16         -4.5490     1.4900     4.6270 hc         1 13T       0.088700
     58 H17         -2.7280     1.2250     7.0690 h1         1 13T       0.063700
     59 H19         -1.0680    -0.2040     6.4510 h1         1 13T       0.079700
     60 H20          0.0650     0.0980     3.6140 hc         1 13T       0.064700
     61 H21         -0.6590    -2.4590     5.1570 ha         1 13T       0.164000
     62 H22         -1.8170    -3.1430     3.2570 ha         1 13T       0.173000
     63 H231        -1.0570    -0.4380     1.9420 hc         1 13T       0.041367
     64 H232        -2.6450    -1.1870     1.8150 hc         1 13T       0.041367
     65 H233        -1.2560    -1.9780     1.1080 hc         1 13T       0.041367
     66 H241        -0.8800    -2.3840     9.8950 hc         1 13T       0.044367
     67 H242        -0.9280    -3.7200    11.0330 hc         1 13T       0.044367
     68 H243        -0.9360    -4.0440     9.3040 hc         1 13T       0.044367
     69 H251        -4.6590    -4.8450    12.7460 hc         1 13T       0.042367
     70 H252        -6.2320    -5.4310    12.2390 hc         1 13T       0.042367
     71 H253        -4.7960    -6.4130    11.9560 hc         1 13T       0.042367
     72 H261        -8.0980    -5.7500    10.7840 hc         1 13T       0.046700
     73 H262        -9.1160    -4.5770     9.9560 hc         1 13T       0.046700
     74 H263        -7.8710    -4.0300    11.0620 hc         1 13T       0.046700
     75 H271        -9.7230    -3.3540     5.6400 hc         1 13T       0.040367
     76 H272        -8.0180    -3.7460     5.3960 hc         1 13T       0.040367
     77 H273        -9.1280    -4.9760     5.9820 hc         1 13T       0.040367
     78 H281        -8.2760     2.4020     5.1680 hc         1 13T       0.046033
     79 H282        -7.4650     2.9910     6.6220 hc         1 13T       0.046033
     80 H283        -6.6290     3.0180     5.0650 hc         1 13T       0.046033
     81 H291        -5.0790    -0.8940     4.9180 h1         1 13T       0.063700
     82 H292        -3.4310    -0.6090     4.3700 h1         1 13T       0.063700
     83 H301        -1.0240     1.8910     3.1990 hc         1 13T       0.050033
     84 H302        -2.6570     1.2390     3.1940 hc         1 13T       0.050033
     85 H303        -2.3680     2.8950     3.7190 hc         1 13T       0.050033
     86 H311         1.3610    -1.2130     6.0550 hc         1 13T       0.041033
     87 H312         1.8910     0.2880     5.2930 hc         1 13T       0.041033
     88 H313         1.9980    -1.2350     4.4110 hc         1 13T       0.041033
     89 H321        -6.2790    -1.2680     9.5970 h1         1 13T       0.042033
     90 H322        -4.7830    -0.3280     9.4410 h1         1 13T       0.042033
     91 H323        -4.9670    -1.5100    10.7520 h1         1 13T       0.042033
     92 HO10        -3.6000     3.2360     7.0180 ho         1 13T       0.519000
@<TRIPOS>BOND
     1     1    10 1   
     2     1    38 1   
     3     2    10 2   
     4     3    11 1   
     5     3    43 1   
     6     4    12 1   
     7     4    41 1   
     8     5    14 2   
     9     6    16 1   
    10     6    44 1   
    11     7    20 2   
    12     8    24 2   
    13     9    26 1   
    14     9    92 1   
    15    10    11 1   
    16    11    12 1   
    17    11    45 1   
    18    12    13 1   
    19    12    46 1   
    20    13    14 1   
    21    13    33 1   
    22    13    47 1   
    23    14    15 1   
    24    15    16 1   
    25    15    34 1   
    26    15    48 1   
    27    16    17 1   
    28    16    49 1   
    29    17    18 2   
    30    17    35 1   
    31    18    19 1   
    32    18    50 1   
    33    19    20 1   
    34    19    36 1   
    35    19    51 1   
    36    20    21 1   
    37    21    22 1   
    38    21    52 1   
    39    21    53 1   
    40    22    23 1   
    41    22    54 1   
    42    22    55 1   
    43    23    24 1   
    44    23    37 1   
    45    23    56 1   
    46    24    25 1   
    47    25    26 1   
    48    25    38 1   
    49    25    57 1   
    50    26    27 1   
    51    26    58 1   
    52    27    28 1   
    53    27    39 1   
    54    27    42 1   
    55    28    29 1   
    56    28    42 1   
    57    28    59 1   
    58    29    30 1   
    59    29    40 1   
    60    29    60 1   
    61    30    31 2   
    62    30    61 1   
    63    31    32 1   
    64    31    62 1   
    65    32    63 1   
    66    32    64 1   
    67    32    65 1   
    68    33    66 1   
    69    33    67 1   
    70    33    68 1   
    71    34    69 1   
    72    34    70 1   
    73    34    71 1   
    74    35    72 1   
    75    35    73 1   
    76    35    74 1   
    77    36    75 1   
    78    36    76 1   
    79    36    77 1   
    80    37    78 1   
    81    37    79 1   
    82    37    80 1   
    83    38    81 1   
    84    38    82 1   
    85    39    83 1   
    86    39    84 1   
    87    39    85 1   
    88    40    86 1   
    89    40    87 1   
    90    40    88 1   
    91    41    89 1   
    92    41    90 1   
    93    41    91 1   
@<TRIPOS>SUBSTRUCTURE
     1 13T         1 TEMP              0 ****  ****    0 ROOT
