@<TRIPOS>MOLECULE
13U
   65    67     1     0     0
SMALL
No Charge or Current Charge


@<TRIPOS>ATOM
      1 C14         -1.6560     0.2420    -0.4280 c          1 13U       0.610100
      2 O32         -1.0830    -0.8440    -0.4770 o          1 13U      -0.597100
      3 C5          -3.2210     0.3530    -0.3870 c3         1 13U       0.094800
      4 N21         -3.9540    -0.9170    -0.0570 n7         1 13U      -0.853400
      5 C49         -5.4320    -0.8600    -0.0470 c3         1 13U       0.178500
      6 C48         -5.9700    -2.1100     0.7120 c3         1 13U      -0.085900
      7 C47         -7.1320    -1.8370     1.7060 c3         1 13U      -0.066900
      8 C46         -8.5030    -1.3950     1.1280 c3         1 13U      -0.069900
      9 C45         -8.5260    -0.0020     0.4440 c3         1 13U      -0.069400
     10 C44         -8.4580    -0.0070    -1.1040 c3         1 13U      -0.069900
     11 C43         -7.4540    -0.9760    -1.7740 c3         1 13U      -0.066900
     12 C42         -5.9480    -0.7230    -1.5100 c3         1 13U      -0.085900
     13 N1          -0.9090     1.4420    -0.4120 n          1 13U      -0.408800
     14 C1           0.5810     1.4680    -0.3520 c5         1 13U       0.034700
     15 C7           1.2230     0.7220     0.8640 c          1 13U       0.605100
     16 O22          0.6900     0.4180     1.9250 o          1 13U      -0.592100
     17 C2           0.8470     2.9960    -0.1860 c5         1 13U      -0.086400
     18 C3          -0.2880     3.6160    -1.0350 c5         1 13U      -0.093400
     19 C4          -1.5130     2.7800    -0.5880 c5         1 13U       0.108000
     20 N23          2.5400     0.4360     0.5790 ns         1 13U      -0.497900
     21 C24          3.4440    -0.2530     1.4940 c3         1 13U       0.148300
     22 C25          4.8410    -0.3600     0.9020 ca         1 13U      -0.095300
     23 C30          5.2040    -1.4810     0.1360 ca         1 13U      -0.108500
     24 C29          6.4930    -1.5800    -0.4180 ca         1 13U      -0.081000
     25 C28          7.4520    -0.5600    -0.2050 ca         1 13U      -0.139900
     26 C21          8.8220    -0.6340    -0.8170 ce         1 13U       0.659800
     27 N46          9.5770     0.3760    -0.9630 n2         1 13U      -0.828100
     28 N47          9.3160    -1.8510    -1.1310 nv         1 13U      -1.076200
     29 C27          7.0660     0.5750     0.5450 ca         1 13U      -0.081000
     30 C26          5.7770     0.6700     1.0980 ca         1 13U      -0.108500
     31 H5          -3.4750     1.1260     0.3510 h1         1 13U       0.043700
     32 H5A         -3.5260     0.7340    -1.3700 h1         1 13U       0.043700
     33 HN21        -3.6520    -1.6560    -0.7040 hn         1 13U       0.424000
     34 H49         -5.7330     0.0300     0.5190 h1         1 13U       0.059700
     35 H48         -6.2550    -2.8990     0.0060 hc         1 13U       0.039950
     36 H48A        -5.1570    -2.5420     1.3090 hc         1 13U       0.039950
     37 H47         -7.2990    -2.7570     2.2790 hc         1 13U       0.037700
     38 H47A        -6.8000    -1.0890     2.4370 hc         1 13U       0.037700
     39 H46         -8.8960    -2.1640     0.4530 hc         1 13U       0.034700
     40 H46A        -9.2060    -1.3600     1.9690 hc         1 13U       0.034700
     41 H45         -9.4650     0.4930     0.7210 hc         1 13U       0.035700
     42 H45A        -7.7410     0.6390     0.8590 hc         1 13U       0.035700
     43 H44         -9.4570    -0.2610    -1.4800 hc         1 13U       0.034700
     44 H44A        -8.2570     1.0140    -1.4500 hc         1 13U       0.034700
     45 H43         -7.7100    -2.0110    -1.5260 hc         1 13U       0.037700
     46 H43A        -7.6080    -0.9010    -2.8570 hc         1 13U       0.037700
     47 H42         -5.7050     0.2810    -1.8800 hc         1 13U       0.039950
     48 H42A        -5.3900    -1.4240    -2.1430 hc         1 13U       0.039950
     49 H1           1.0060     1.0820    -1.2880 h1         1 13U       0.060700
     50 H2           0.7620     3.3090     0.8620 hc         1 13U       0.064200
     51 H2A          1.8450     3.2890    -0.5320 hc         1 13U       0.064200
     52 H3          -0.4230     4.6880    -0.8500 hc         1 13U       0.055200
     53 H3A         -0.0940     3.4890    -2.1070 hc         1 13U       0.055200
     54 H4          -1.9260     3.1450     0.3630 h1         1 13U       0.049700
     55 H4A         -2.3080     2.7930    -1.3450 h1         1 13U       0.049700
     56 HN23         2.8970     0.7270    -0.3220 hn         1 13U       0.318500
     57 H24          3.4840     0.3000     2.4430 h1         1 13U       0.063200
     58 H24A         3.0480    -1.2560     1.7030 h1         1 13U       0.063200
     59 H30          4.4840    -2.2780    -0.0390 ha         1 13U       0.119500
     60 H29          6.7330    -2.4510    -1.0240 ha         1 13U       0.128000
     61 HN46        10.3530     0.1040    -1.5760 hn         1 13U       0.371400
     62 HN47         8.8170    -2.6310    -0.7180 hn         1 13U       0.461500
     63 HN4A        10.3250    -1.9390    -1.1270 hn         1 13U       0.461500
     64 H27          7.7700     1.3880     0.7100 ha         1 13U       0.128000
     65 H26          5.5060     1.5500     1.6780 ha         1 13U       0.119500
@<TRIPOS>BOND
     1     1     2 2   
     2     1     3 1   
     3     1    13 1   
     4     3     4 1   
     5     3    31 1   
     6     3    32 1   
     7     4     5 1   
     8     4    33 1   
     9     5     6 1   
    10     5    12 1   
    11     5    34 1   
    12     6     7 1   
    13     6    35 1   
    14     6    36 1   
    15     7     8 1   
    16     7    37 1   
    17     7    38 1   
    18     8     9 1   
    19     8    39 1   
    20     8    40 1   
    21     9    10 1   
    22     9    41 1   
    23     9    42 1   
    24    10    11 1   
    25    10    43 1   
    26    10    44 1   
    27    11    12 1   
    28    11    45 1   
    29    11    46 1   
    30    12    47 1   
    31    12    48 1   
    32    13    14 1   
    33    13    19 1   
    34    14    15 1   
    35    14    17 1   
    36    14    49 1   
    37    15    16 2   
    38    15    20 1   
    39    17    18 1   
    40    17    50 1   
    41    17    51 1   
    42    18    19 1   
    43    18    52 1   
    44    18    53 1   
    45    19    54 1   
    46    19    55 1   
    47    20    21 1   
    48    20    56 1   
    49    21    22 1   
    50    21    57 1   
    51    21    58 1   
    52    22    23 ar  
    53    22    30 ar  
    54    23    24 ar  
    55    23    59 1   
    56    24    25 ar  
    57    24    60 1   
    58    25    26 1   
    59    25    29 ar  
    60    26    27 2   
    61    26    28 1   
    62    27    61 1   
    63    28    62 1   
    64    28    63 1   
    65    29    30 ar  
    66    29    64 1   
    67    30    65 1   
@<TRIPOS>SUBSTRUCTURE
     1 13U         1 TEMP              0 ****  ****    0 ROOT
