@<TRIPOS>MOLECULE
13U
   65    67     1     0     0
SMALL
bcc


@<TRIPOS>ATOM
      1 C14         -1.5840     0.5330    -0.4850 c          1 13U       0.677100
      2 O32         -0.9420    -0.5090    -0.5240 o          1 13U      -0.597100
      3 C5          -3.1000     0.5540    -0.4970 c3         1 13U       0.094800
      4 N21         -3.6370    -0.7600    -0.2510 n7         1 13U      -0.798200
      5 C49         -5.0960    -0.8140    -0.1700 c3         1 13U       0.178500
      6 C48         -5.5120    -2.2200     0.2940 c3         1 13U      -0.085900
      7 C47         -6.5530    -2.2690     1.4140 c3         1 13U      -0.066900
      8 C46         -7.9730    -1.7840     1.1180 c3         1 13U      -0.069900
      9 C45         -8.1080    -0.2890     0.7930 c3         1 13U      -0.069400
     10 C44         -8.2110     0.0440    -0.6980 c3         1 13U      -0.069900
     11 C43         -7.2610    -0.6910    -1.6370 c3         1 13U      -0.066900
     12 C42         -5.7720    -0.3960    -1.4860 c3         1 13U      -0.085900
     13 N1          -0.9750     1.7300    -0.4700 n          1 13U      -0.475800
     14 C1           0.4720     1.8190    -0.5010 c5         1 13U       0.034700
     15 C7           1.1080     1.0400     0.6430 c          1 13U       0.672100
     16 O22          0.6570     1.0810     1.7760 o          1 13U      -0.592100
     17 C2           0.7380     3.3240    -0.3560 c5         1 13U      -0.086400
     18 C3          -0.5160     3.9640    -0.9410 c5         1 13U      -0.093400
     19 C4          -1.6260     3.0340    -0.4710 c5         1 13U       0.108000
     20 N23          2.2360     0.3940     0.3160 ns         1 13U      -0.564900
     21 C24          3.0220    -0.3590     1.2700 c3         1 13U       0.148300
     22 C25          4.4330    -0.5270     0.7770 ca         1 13U      -0.095300
     23 C30          4.9910    -1.7900     0.6360 ca         1 13U      -0.126500
     24 C29          6.2970    -1.9460     0.1900 ca         1 13U      -0.099000
     25 C28          7.0700    -0.8350    -0.1370 ca         1 13U      -0.139900
     26 C21          8.4630    -0.9700    -0.6430 ce         1 13U       0.659800
     27 N46          8.9340    -0.0440    -1.3890 n2         1 13U      -0.828100
     28 N47          9.1020    -2.1260    -0.2950 nv         1 13U      -0.965800
     29 C27          6.5060     0.4330    -0.0040 ca         1 13U      -0.099000
     30 C26          5.2090     0.5850     0.4530 ca         1 13U      -0.126500
     31 H5          -3.4650     1.2330     0.2810 h1         1 13U       0.043700
     32 H5A         -3.4070     1.0100    -1.4520 h1         1 13U       0.043700
     33 HN21        -3.3140    -1.3990    -0.9680 hn         1 13U       0.368800
     34 H49         -5.3660    -0.0960     0.6120 h1         1 13U       0.059700
     35 H48         -5.8460    -2.8230    -0.5560 hc         1 13U       0.039950
     36 H48A        -4.6150    -2.7140     0.6750 hc         1 13U       0.039950
     37 H47         -6.6190    -3.3050     1.7580 hc         1 13U       0.037700
     38 H47A        -6.1680    -1.6970     2.2660 hc         1 13U       0.037700
     39 H46         -8.4140    -2.3860     0.3170 hc         1 13U       0.034700
     40 H46A        -8.5710    -2.0050     2.0060 hc         1 13U       0.034700
     41 H45         -9.0090     0.0990     1.2740 hc         1 13U       0.035700
     42 H45A        -7.2840     0.2610     1.2560 hc         1 13U       0.035700
     43 H44         -9.2300    -0.1860    -1.0250 hc         1 13U       0.034700
     44 H44A        -8.0920     1.1240    -0.8330 hc         1 13U       0.034700
     45 H43         -7.4330    -1.7680    -1.5590 hc         1 13U       0.037700
     46 H43A        -7.5430    -0.4330    -2.6620 hc         1 13U       0.037700
     47 H42         -5.6080     0.6720    -1.6620 hc         1 13U       0.039950
     48 H42A        -5.2480    -0.9180    -2.2960 hc         1 13U       0.039950
     49 H1           0.8520     1.4590    -1.4640 h1         1 13U       0.060700
     50 H2           0.8340     3.5900     0.6990 hc         1 13U       0.064200
     51 H2A          1.6540     3.6230    -0.8620 hc         1 13U       0.064200
     52 H3          -0.6670     4.9890    -0.6070 hc         1 13U       0.055200
     53 H3A         -0.4690     3.9680    -2.0310 hc         1 13U       0.055200
     54 H4          -1.9710     3.2990     0.5330 h1         1 13U       0.049700
     55 H4A         -2.4870     3.0490    -1.1390 h1         1 13U       0.049700
     56 HN23         2.4760     0.3050    -0.6590 hn         1 13U       0.318500
     57 H24          3.0220     0.1780     2.2200 h1         1 13U       0.063200
     58 H24A         2.5730    -1.3390     1.4600 h1         1 13U       0.063200
     59 H30          4.4010    -2.6690     0.8670 ha         1 13U       0.137500
     60 H29          6.6910    -2.9470     0.0710 ha         1 13U       0.146000
     61 HN46         9.8970    -0.2370    -1.6500 hn         1 13U       0.371400
     62 HN47         8.8420    -2.5760     0.5670 hn         1 13U       0.406300
     63 HN4A        10.0860    -2.1890    -0.5020 hn         1 13U       0.406300
     64 H27          7.0960     1.3050    -0.2530 ha         1 13U       0.146000
     65 H26          4.7970     1.5820     0.5600 ha         1 13U       0.137500
@<TRIPOS>BOND
     1     1     2 2   
     2     1     3 1   
     3     1    13 1   
     4     3     4 1   
     5     3    31 1   
     6     3    32 1   
     7     4     5 1   
     8     4    33 1   
     9     5     6 1   
    10     5    12 1   
    11     5    34 1   
    12     6     7 1   
    13     6    35 1   
    14     6    36 1   
    15     7     8 1   
    16     7    37 1   
    17     7    38 1   
    18     8     9 1   
    19     8    39 1   
    20     8    40 1   
    21     9    10 1   
    22     9    41 1   
    23     9    42 1   
    24    10    11 1   
    25    10    43 1   
    26    10    44 1   
    27    11    12 1   
    28    11    45 1   
    29    11    46 1   
    30    12    47 1   
    31    12    48 1   
    32    13    14 1   
    33    13    19 1   
    34    14    15 1   
    35    14    17 1   
    36    14    49 1   
    37    15    16 2   
    38    15    20 1   
    39    17    18 1   
    40    17    50 1   
    41    17    51 1   
    42    18    19 1   
    43    18    52 1   
    44    18    53 1   
    45    19    54 1   
    46    19    55 1   
    47    20    21 1   
    48    20    56 1   
    49    21    22 1   
    50    21    57 1   
    51    21    58 1   
    52    22    23 ar  
    53    22    30 ar  
    54    23    24 ar  
    55    23    59 1   
    56    24    25 ar  
    57    24    60 1   
    58    25    26 1   
    59    25    29 ar  
    60    26    27 2   
    61    26    28 1   
    62    27    61 1   
    63    28    62 1   
    64    28    63 1   
    65    29    30 ar  
    66    29    64 1   
    67    30    65 1   
@<TRIPOS>SUBSTRUCTURE
     1 13U         1 TEMP              0 ****  ****    0 ROOT
