@<TRIPOS>MOLECULE
13V
   49    51     1     0     0
SMALL
No Charge or Current Charge


@<TRIPOS>ATOM
      1 N3          -0.0200     3.9480    -1.5660 nv         1 13V      -1.038900
      2 C15          0.9140     3.0850    -1.0900 ca         1 13V       0.339900
      3 N2           0.5650     1.7920    -1.0570 nb         1 13V      -0.232000
      4 N4           2.0800     3.6260    -0.7070 nb         1 13V      -0.222000
      5 C16          3.0050     2.7700    -0.2320 ca         1 13V       0.069900
      6 C17          2.7550     1.3790    -0.1460 ca         1 13V      -0.023900
      7 O2           3.6920     0.4980     0.3690 os         1 13V      -0.334100
      8 C18          5.0070     0.9240     0.7790 c3         1 13V       0.162600
      9 C19          5.7940    -0.3150     1.2640 c3         1 13V       0.155600
     10 O3           6.0860    -1.1600     0.1310 os         1 13V      -0.450000
     11 C20          6.8060    -2.3610     0.4530 c3         1 13V       0.142900
     12 C14          1.4840     0.9180    -0.5890 ca         1 13V       0.258800
     13 C11          1.0980    -0.5040    -0.5610 cc         1 13V      -0.231000
     14 C10          1.9980    -1.5200    -0.8740 cd         1 13V      -0.099100
     15 N1           1.2910    -2.7450    -0.9470 na         1 13V      -0.215700
     16 C12         -0.2090    -1.0980    -0.5030 ca         1 13V      -0.064800
     17 C9          -0.0430    -2.4360    -0.7310 ca         1 13V      -0.059200
     18 C8          -1.1330    -3.3180    -0.7320 ca         1 13V      -0.134000
     19 C7          -2.4180    -2.7900    -0.4850 ca         1 13V      -0.070000
     20 C13         -1.4720    -0.5410    -0.2450 ca         1 13V      -0.019000
     21 C6          -2.5900    -1.4050    -0.2400 ca         1 13V      -0.009000
     22 C5          -3.8990    -0.8790     0.0170 cg         1 13V      -0.086000
     23 C4          -5.0040    -0.4230     0.2320 c1         1 13V      -0.131100
     24 C1          -6.3290     0.1700     0.4680 c3         1 13V       0.277100
     25 C3          -6.1850     1.5440     1.1580 c3         1 13V      -0.116600
     26 C2          -7.1070     0.2890    -0.8610 c3         1 13V      -0.116600
     27 O1          -7.0660    -0.6870     1.3370 oh         1 13V      -0.648000
     28 H1          -0.8360     3.5750    -2.0460 hn         1 13V       0.476000
     29 H2           0.2540     4.9030    -1.7880 hn         1 13V       0.476000
     30 H3           3.9450     3.2150     0.0860 h4         1 13V       0.019100
     31 H4           5.5460     1.3960    -0.0530 h1         1 13V       0.043200
     32 H5           4.9360     1.6460     1.6020 h1         1 13V       0.043200
     33 H6           6.7240     0.0200     1.7400 h1         1 13V       0.035200
     34 H7           5.2000    -0.8530     2.0150 h1         1 13V       0.035200
     35 H8           7.7750    -2.1240     0.9110 h1         1 13V       0.030367
     36 H9           6.2330    -2.9830     1.1530 h1         1 13V       0.030367
     37 H10          6.9920    -2.9490    -0.4540 h1         1 13V       0.030367
     38 H11          3.0670    -1.4650    -1.0730 h4         1 13V       0.240000
     39 H12          1.6790    -3.6600    -1.1580 hn         1 13V       0.351000
     40 H13         -0.9950    -4.3800    -0.9170 ha         1 13V       0.114000
     41 H14         -3.2800    -3.4540    -0.4800 ha         1 13V       0.118000
     42 H15         -1.5900     0.5210    -0.0470 ha         1 13V       0.143000
     43 H16         -5.6160     2.2390     0.5270 hc         1 13V       0.045033
     44 H17         -7.1670     1.9920     1.3500 hc         1 13V       0.045033
     45 H18         -5.6610     1.4500     2.1170 hc         1 13V       0.045033
     46 H19         -7.2350    -0.6940    -1.3320 hc         1 13V       0.045033
     47 H20         -8.1020     0.7200    -0.6970 hc         1 13V       0.045033
     48 H21         -6.5730     0.9370    -1.5680 hc         1 13V       0.045033
     49 H22         -7.9390    -0.2610     1.4720 ho         1 13V       0.440000
@<TRIPOS>BOND
     1     1     2 1   
     2     1    28 1   
     3     1    29 1   
     4     2     3 ar  
     5     2     4 ar  
     6     3    12 ar  
     7     4     5 ar  
     8     5     6 ar  
     9     5    30 1   
    10     6     7 1   
    11     6    12 ar  
    12     7     8 1   
    13     8     9 1   
    14     8    31 1   
    15     8    32 1   
    16     9    10 1   
    17     9    33 1   
    18     9    34 1   
    19    10    11 1   
    20    11    35 1   
    21    11    36 1   
    22    11    37 1   
    23    12    13 1   
    24    13    14 2   
    25    13    16 1   
    26    14    15 1   
    27    14    38 1   
    28    15    17 1   
    29    15    39 1   
    30    16    17 ar  
    31    16    20 ar  
    32    17    18 ar  
    33    18    19 ar  
    34    18    40 1   
    35    19    21 ar  
    36    19    41 1   
    37    20    21 ar  
    38    20    42 1   
    39    21    22 1   
    40    22    23 3   
    41    23    24 1   
    42    24    25 1   
    43    24    26 1   
    44    24    27 1   
    45    25    43 1   
    46    25    44 1   
    47    25    45 1   
    48    26    46 1   
    49    26    47 1   
    50    26    48 1   
    51    27    49 1   
@<TRIPOS>SUBSTRUCTURE
     1 13V         1 TEMP              0 ****  ****    0 ROOT
