@<TRIPOS>MOLECULE
13V
   49    51     1     0     0
SMALL
bcc


@<TRIPOS>ATOM
      1 N3          -0.1420     4.0130    -0.5440 nv         1 13V      -0.928500
      2 C15          0.8880     3.1400    -0.3490 ca         1 13V       0.865900
      3 N2           0.5960     1.8420    -0.3880 nb         1 13V      -0.758000
      4 N4           2.0900     3.6480    -0.1030 nb         1 13V      -0.748000
      5 C16          3.0590     2.7750     0.1550 ca         1 13V       0.398200
      6 C17          2.8580     1.4080     0.1600 ca         1 13V      -0.154500
      7 O2           3.7950     0.4860     0.4530 os         1 13V      -0.310900
      8 C18          5.1550     0.8730     0.4960 c3         1 13V       0.139400
      9 C19          5.9760    -0.3640     0.7480 c3         1 13V       0.132400
     10 O3           5.8150    -1.2600    -0.3190 os         1 13V      -0.403600
     11 C20          6.5070    -2.4670    -0.1210 c3         1 13V       0.119700
     12 C14          1.5590     0.9580    -0.1510 ca         1 13V       0.587100
     13 C11          1.1950    -0.4470    -0.2270 cc         1 13V      -0.231000
     14 C10          2.0340    -1.5380    -0.3270 cd         1 13V      -0.049100
     15 N1           1.3040    -2.6730    -0.4190 na         1 13V      -0.165400
     16 C12         -0.1480    -0.9770    -0.2580 ca         1 13V      -0.064800
     17 C9          -0.0270    -2.3780    -0.3720 ca         1 13V      -0.059200
     18 C8          -1.1280    -3.2300    -0.4090 ca         1 13V      -0.152000
     19 C7          -2.3780    -2.6600    -0.3220 ca         1 13V      -0.088000
     20 C13         -1.4260    -0.4220    -0.1700 ca         1 13V      -0.037000
     21 C6          -2.5350    -1.2620    -0.1970 ca         1 13V      -0.009000
     22 C5          -3.8480    -0.7150    -0.0840 cg         1 13V      -0.086000
     23 C4          -4.9620    -0.2700     0.0290 c1         1 13V      -0.131100
     24 C1          -6.3230     0.2640     0.1660 c3         1 13V       0.253900
     25 C3          -6.2970     1.7870     0.0180 c3         1 13V      -0.116600
     26 C2          -7.2290    -0.3640    -0.8960 c3         1 13V      -0.116600
     27 O1          -6.7500    -0.1050     1.4690 oh         1 13V      -0.585800
     28 H1          -0.9460     3.6520    -1.0290 hn         1 13V       0.420800
     29 H2           0.1130     4.9520    -0.8000 hn         1 13V       0.420800
     30 H3           4.0350     3.1980     0.3670 h4         1 13V       0.019100
     31 H4           5.4490     1.3510    -0.4460 h1         1 13V       0.043200
     32 H5           5.3410     1.5860     1.3070 h1         1 13V       0.043200
     33 H6           7.0250    -0.0580     0.8610 h1         1 13V       0.035200
     34 H7           5.6730    -0.8220     1.7000 h1         1 13V       0.035200
     35 H8           7.5870    -2.3110    -0.0200 h1         1 13V       0.030367
     36 H9           6.1580    -2.9980     0.7730 h1         1 13V       0.030367
     37 H10          6.3300    -3.1020    -0.9880 h1         1 13V       0.030367
     38 H11          3.1090    -1.5880    -0.3610 h4         1 13V       0.190000
     39 H12          1.6940    -3.5970    -0.5090 hn         1 13V       0.300700
     40 H13         -1.0070    -4.3020    -0.4970 ha         1 13V       0.132000
     41 H14         -3.2560    -3.2900    -0.3460 ha         1 13V       0.136000
     42 H15         -1.5550     0.6470    -0.0830 ha         1 13V       0.161000
     43 H16         -5.9420     2.0790    -0.9700 hc         1 13V       0.045033
     44 H17         -7.3030     2.1910     0.1460 hc         1 13V       0.045033
     45 H18         -5.6460     2.2410     0.7650 hc         1 13V       0.045033
     46 H19         -7.2350    -1.4500    -0.8110 hc         1 13V       0.045033
     47 H20         -8.2530    -0.0030    -0.7770 hc         1 13V       0.045033
     48 H21         -6.8980    -0.0990    -1.9000 hc         1 13V       0.045033
     49 H22         -7.6520     0.2140     1.5840 ho         1 13V       0.401000
@<TRIPOS>BOND
     1     1     2 1   
     2     1    28 1   
     3     1    29 1   
     4     2     3 ar  
     5     2     4 ar  
     6     3    12 ar  
     7     4     5 ar  
     8     5     6 ar  
     9     5    30 1   
    10     6     7 1   
    11     6    12 ar  
    12     7     8 1   
    13     8     9 1   
    14     8    31 1   
    15     8    32 1   
    16     9    10 1   
    17     9    33 1   
    18     9    34 1   
    19    10    11 1   
    20    11    35 1   
    21    11    36 1   
    22    11    37 1   
    23    12    13 1   
    24    13    14 2   
    25    13    16 1   
    26    14    15 1   
    27    14    38 1   
    28    15    17 1   
    29    15    39 1   
    30    16    17 ar  
    31    16    20 ar  
    32    17    18 ar  
    33    18    19 ar  
    34    18    40 1   
    35    19    21 ar  
    36    19    41 1   
    37    20    21 ar  
    38    20    42 1   
    39    21    22 1   
    40    22    23 3   
    41    23    24 1   
    42    24    25 1   
    43    24    26 1   
    44    24    27 1   
    45    25    43 1   
    46    25    44 1   
    47    25    45 1   
    48    26    46 1   
    49    26    47 1   
    50    26    48 1   
    51    27    49 1   
@<TRIPOS>SUBSTRUCTURE
     1 13V         1 TEMP              0 ****  ****    0 ROOT
