@<TRIPOS>MOLECULE
13W
   39    41     1     0     0
SMALL
No Charge or Current Charge


@<TRIPOS>ATOM
      1 C1           3.6720    -2.2030     0.0530 ca         1 13W      -0.113000
      2 C2           4.8430    -1.4920     0.3500 ca         1 13W      -0.071000
      3 C3           4.8120    -0.0880     0.4010 ca         1 13W      -0.017000
      4 C4           3.6060     0.5980     0.1560 ca         1 13W      -0.065000
      5 C5           2.4110    -0.1040    -0.1450 ca         1 13W      -0.012000
      6 C6           2.4700    -1.5170    -0.1920 ca         1 13W      -0.080000
      7 C7           1.1310     0.5930    -0.4070 cc         1 13W      -0.062000
      8 C8          -0.1160     0.0010    -0.7570 cc         1 13W      -0.104000
      9 C9          -1.1500     0.8970    -0.9250 cd         1 13W      -0.261300
     10 S1          -0.5870     2.5540    -0.6470 ss         1 13W       0.235000
     11 C10          1.0460     1.9640    -0.3020 cd         1 13W      -0.228000
     12 C11         -2.5990     0.5920    -1.2830 c6         1 13W       0.334500
     13 C12         -3.5360     1.0080    -0.1490 c6         1 13W      -0.166400
     14 C13         -3.2880     0.1240     1.0620 c          1 13W       0.582000
     15 N1          -3.0430    -1.2400     0.8330 n          1 13W      -0.386300
     16 C14         -3.0670    -1.7330    -0.4710 c2         1 13W       0.694800
     17 N2          -2.7330    -0.8460    -1.4340 nu         1 13W      -0.908400
     18 N3          -3.2800    -2.9290    -0.8120 n2         1 13W      -0.891100
     19 C15         -2.9880     1.2720    -2.6200 c3         1 13W      -0.092100
     20 C16         -2.7750    -2.1180     1.9980 c3         1 13W       0.072300
     21 O1          -3.2760     0.6070     2.1880 o          1 13W      -0.530000
     22 C17          6.0100     0.6460     0.7030 cg         1 13W       0.323000
     23 N4           6.9790     1.2510     0.9480 n1         1 13W      -0.451000
     24 H1           3.6940    -3.2900     0.0130 ha         1 13W       0.122000
     25 H2           5.7700    -2.0310     0.5380 ha         1 13W       0.127000
     26 H3           3.6200     1.6810     0.1990 ha         1 13W       0.126000
     27 H4           1.5870    -2.1060    -0.4150 ha         1 13W       0.120000
     28 H5          -0.2320    -1.0690    -0.8790 ha         1 13W       0.142000
     29 H6           1.8040     2.6890    -0.0450 h4         1 13W       0.156000
     30 H7          -3.4750     2.0700     0.1180 hc         1 13W       0.088200
     31 H8          -4.5580     0.7890    -0.4850 hc         1 13W       0.088200
     32 H9          -3.4890    -3.4610     0.0420 hn         1 13W       0.404400
     33 H11         -2.3050     0.9800    -3.4260 hc         1 13W       0.052700
     34 H12         -4.0040     1.0000    -2.9280 hc         1 13W       0.052700
     35 H13         -2.9520     2.3650    -2.5360 hc         1 13W       0.052700
     36 H14         -3.7200    -2.3660     2.4990 h1         1 13W       0.053700
     37 H15         -2.2820    -3.0450     1.6790 h1         1 13W       0.053700
     38 H16         -2.1120    -1.6110     2.7110 h1         1 13W       0.053700
     39 H17         -2.6930    -1.2520    -2.3610 hn         1 13W       0.504000
@<TRIPOS>BOND
     1     1     2 ar  
     2     1     6 ar  
     3     1    24 1   
     4     2     3 ar  
     5     2    25 1   
     6     3     4 ar  
     7     3    22 1   
     8     4     5 ar  
     9     4    26 1   
    10     5     6 ar  
    11     5     7 1   
    12     6    27 1   
    13     7     8 1   
    14     7    11 2   
    15     8     9 2   
    16     8    28 1   
    17     9    10 1   
    18     9    12 1   
    19    10    11 1   
    20    11    29 1   
    21    12    13 1   
    22    12    17 1   
    23    12    19 1   
    24    13    14 1   
    25    13    30 1   
    26    13    31 1   
    27    14    15 1   
    28    14    21 2   
    29    15    16 1   
    30    15    20 1   
    31    16    17 1   
    32    16    18 2   
    33    17    39 1   
    34    18    32 1   
    35    19    33 1   
    36    19    34 1   
    37    19    35 1   
    38    20    36 1   
    39    20    37 1   
    40    20    38 1   
    41    22    23 3   
@<TRIPOS>SUBSTRUCTURE
     1 13W         1 TEMP              0 ****  ****    0 ROOT
