@<TRIPOS>MOLECULE
13W
   39    41     1     0     0
SMALL
abcg2


@<TRIPOS>ATOM
      1 C1           3.8690    -1.9700    -0.9170 ca         1 13W      -0.113000
      2 C2           4.8530    -1.4740    -0.0790 ca         1 13W      -0.071000
      3 C3           4.5980    -0.3030     0.6330 ca         1 13W      -0.017000
      4 C4           3.3820     0.3620     0.5100 ca         1 13W      -0.065000
      5 C5           2.3960    -0.1320    -0.3400 ca         1 13W      -0.012000
      6 C6           2.6570    -1.3070    -1.0470 ca         1 13W      -0.080000
      7 C7           1.1130     0.5690    -0.4910 cc         1 13W      -0.062000
      8 C8          -0.1100    -0.0730    -0.8570 cc         1 13W      -0.104000
      9 C9          -1.1680     0.7780    -0.9310 cd         1 13W      -0.261300
     10 S1          -0.6780     2.3900    -0.5600 ss         1 13W       0.235000
     11 C10          0.9410     1.9110    -0.3020 cd         1 13W      -0.228000
     12 C11         -2.6040     0.4560    -1.3050 c6         1 13W       0.334500
     13 C12         -3.5740     1.0210    -0.2750 c6         1 13W      -0.166400
     14 C13         -3.4090     0.3530     1.0620 c          1 13W       0.582000
     15 N1          -3.0180    -0.9650     1.0340 n          1 13W      -0.386300
     16 C14         -2.8360    -1.6990    -0.1500 c2         1 13W       0.694800
     17 N2          -2.8300    -0.9670    -1.3010 nu         1 13W      -0.908400
     18 N3          -2.6870    -2.9620    -0.2070 n2         1 13W      -0.891100
     19 C15         -2.9170     0.9990    -2.6960 c3         1 13W      -0.092100
     20 C16         -2.8400    -1.6780     2.2900 c3         1 13W       0.072300
     21 O1          -3.6260     0.9360     2.1040 o          1 13W      -0.530000
     22 C17          5.5950     0.2200     1.5130 cg         1 13W       0.323000
     23 N4           6.3990     0.6410     2.2210 n1         1 13W      -0.451000
     24 H1           4.0480    -2.8770    -1.4780 ha         1 13W       0.122000
     25 H2           5.8010    -1.9850     0.0250 ha         1 13W       0.127000
     26 H3           3.2050     1.2580     1.0910 ha         1 13W       0.126000
     27 H4           1.9130    -1.7080    -1.7230 ha         1 13W       0.120000
     28 H5          -0.1950    -1.1360    -1.0340 ha         1 13W       0.142000
     29 H6           1.6840     2.6490    -0.0390 h4         1 13W       0.156000
     30 H7          -3.4630     2.0970    -0.1420 hc         1 13W       0.088200
     31 H8          -4.5980     0.8450    -0.6180 hc         1 13W       0.088200
     32 H9          -2.7970    -3.4190     0.6860 hn         1 13W       0.404400
     33 H11         -2.2520     0.5550    -3.4380 hc         1 13W       0.052700
     34 H12         -3.9470     0.7740    -2.9710 hc         1 13W       0.052700
     35 H13         -2.7810     2.0790    -2.7290 hc         1 13W       0.052700
     36 H14         -3.6540    -2.3820     2.4670 h1         1 13W       0.053700
     37 H15         -1.8950    -2.2180     2.2800 h1         1 13W       0.053700
     38 H16         -2.8200    -0.9670     3.1060 h1         1 13W       0.053700
     39 H17         -2.5590    -1.4920    -2.1190 hn         1 13W       0.504000
@<TRIPOS>BOND
     1     1     2 ar  
     2     1     6 ar  
     3     1    24 1   
     4     2     3 ar  
     5     2    25 1   
     6     3     4 ar  
     7     3    22 1   
     8     4     5 ar  
     9     4    26 1   
    10     5     6 ar  
    11     5     7 1   
    12     6    27 1   
    13     7     8 1   
    14     7    11 2   
    15     8     9 2   
    16     8    28 1   
    17     9    10 1   
    18     9    12 1   
    19    10    11 1   
    20    11    29 1   
    21    12    13 1   
    22    12    17 1   
    23    12    19 1   
    24    13    14 1   
    25    13    30 1   
    26    13    31 1   
    27    14    15 1   
    28    14    21 2   
    29    15    16 1   
    30    15    20 1   
    31    16    17 1   
    32    16    18 2   
    33    17    39 1   
    34    18    32 1   
    35    19    33 1   
    36    19    34 1   
    37    19    35 1   
    38    20    36 1   
    39    20    37 1   
    40    20    38 1   
    41    22    23 3   
@<TRIPOS>SUBSTRUCTURE
     1 13W         1 TEMP              0 ****  ****    0 ROOT
