@<TRIPOS>MOLECULE
13X
   15    15     1     0     0
SMALL
No Charge or Current Charge


@<TRIPOS>ATOM
      1 O9           0.8570    -2.6200    -0.0150 oh         1 13X      -0.531100
      2 C4           0.4370    -1.3280    -0.0200 ca         1 13X       0.214100
      3 C3          -0.9250    -1.0440     0.1230 ca         1 13X      -0.283667
      4 C2          -1.3610     0.2870     0.1180 ca         1 13X       0.214100
      5 O8          -2.6810     0.5730     0.2570 oh         1 13X      -0.531100
      6 C5           1.3640    -0.2890    -0.1680 ca         1 13X      -0.283667
      7 C6           0.9220     1.0390    -0.1720 ca         1 13X       0.214100
      8 O7           1.8230     2.0450    -0.3160 oh         1 13X      -0.531100
      9 C1          -0.4400     1.3300    -0.0290 ca         1 13X      -0.283667
     10 H1           1.8310    -2.6220    -0.1260 ho         1 13X       0.469333
     11 H2          -1.6340    -1.8590     0.2370 ha         1 13X       0.131000
     12 H3          -3.1660    -0.2750     0.3470 ho         1 13X       0.469333
     13 H4           2.4230    -0.5020    -0.2800 ha         1 13X       0.131000
     14 H5           1.3340     2.8940    -0.2950 ho         1 13X       0.469333
     15 H6          -0.7910     2.3580    -0.0310 ha         1 13X       0.131000
@<TRIPOS>BOND
     1     1     2 1   
     2     1    10 1   
     3     2     3 ar  
     4     2     6 ar  
     5     3     4 ar  
     6     3    11 1   
     7     4     5 1   
     8     4     9 ar  
     9     5    12 1   
    10     6     7 ar  
    11     6    13 1   
    12     7     8 1   
    13     7     9 ar  
    14     8    14 1   
    15     9    15 1   
@<TRIPOS>SUBSTRUCTURE
     1 13X         1 TEMP              0 ****  ****    0 ROOT
