@<TRIPOS>MOLECULE
13X
   15    15     1     0     0
SMALL
abcg2


@<TRIPOS>ATOM
      1 O9           0.8430    -2.5970    -0.0180 oh         1 13X      -0.531100
      2 C4           0.4560    -1.3080    -0.0270 ca         1 13X       0.214100
      3 C3          -0.9080    -1.0560     0.1190 ca         1 13X      -0.283667
      4 C2          -1.3510     0.2600     0.1170 ca         1 13X       0.214100
      5 O8          -2.6530     0.5730     0.2550 oh         1 13X      -0.531100
      6 C5           1.3650    -0.2680    -0.1720 ca         1 13X      -0.283667
      7 C6           0.8940     1.0440    -0.1710 ca         1 13X       0.214100
      8 O7           1.8090     2.0220    -0.3120 oh         1 13X      -0.531100
      9 C1          -0.4590     1.3210    -0.0270 ca         1 13X      -0.283667
     10 H1           1.8010    -2.6620    -0.1080 ho         1 13X       0.469333
     11 H2          -1.6010    -1.8820     0.2300 ha         1 13X       0.131000
     12 H3          -3.1840    -0.2260     0.3510 ho         1 13X       0.469333
     13 H4           2.4260    -0.4600    -0.2860 ha         1 13X       0.131000
     14 H5           1.3800     2.8850    -0.3010 ho         1 13X       0.469333
     15 H6          -0.8250     2.3410    -0.0230 ha         1 13X       0.131000
@<TRIPOS>BOND
     1     1     2 1   
     2     1    10 1   
     3     2     3 ar  
     4     2     6 ar  
     5     3     4 ar  
     6     3    11 1   
     7     4     5 1   
     8     4     9 ar  
     9     5    12 1   
    10     6     7 ar  
    11     6    13 1   
    12     7     8 1   
    13     7     9 ar  
    14     8    14 1   
    15     9    15 1   
@<TRIPOS>SUBSTRUCTURE
     1 13X         1 TEMP              0 ****  ****    0 ROOT
