@<TRIPOS>MOLECULE
13Y
   68    71     1     0     0
SMALL
abcg2


@<TRIPOS>ATOM
      1 C2           5.6770    -2.7900     1.5640 ca         1 13Y       0.154000
      2 C4           5.8870    -0.7010     0.4530 ca         1 13Y      -0.074000
      3 C5           4.5530    -0.7490     0.0810 ca         1 13Y      -0.166000
      4 C6           3.7780    -1.8380     0.4660 ca         1 13Y       0.213100
      5 CL1          6.3720    -4.0800     2.4930 cl         1 13Y      -0.243000
      6 C3           6.4720    -1.7160     1.1970 ca         1 13Y      -0.166000
      7 C7           4.3400    -2.8690     1.2150 ca         1 13Y      -0.145000
      8 O8           2.4640    -1.9680     0.1830 os         1 13Y      -0.226200
      9 C9           1.8230    -0.9510    -0.4860 ca         1 13Y       0.093100
     10 C10          1.6560    -0.9900    -1.8660 ca         1 13Y      -0.114600
     11 C11          0.9130     0.0470    -2.4340 ca         1 13Y      -0.095000
     12 C12          0.4130     1.0940    -1.6810 ca         1 13Y      -0.117000
     13 C13          0.6010     1.1210    -0.3010 ca         1 13Y      -0.119300
     14 C14          1.2920     0.0740     0.2870 ca         1 13Y      -0.142000
     15 C15          0.1090     2.2870     0.5250 c3         1 13Y       0.241800
     16 C16          1.0100     3.5040     0.2540 c3         1 13Y      -0.065400
     17 C17          2.5090     3.2740     0.4600 c3         1 13Y      -0.061700
     18 C18          3.2800     4.5060    -0.0050 c3         1 13Y      -0.085600
     19 C19          2.8450     2.9550     1.9140 c3         1 13Y      -0.085600
     20 N20         -1.2940     2.5610     0.2060 n3         1 13Y      -0.718600
     21 C22         -1.8310     3.7510     0.8530 c6         1 13Y       0.161800
     22 C23         -3.2470     4.0450     0.3780 c6         1 13Y      -0.074400
     23 C24         -4.1820     2.8650     0.6040 c6         1 13Y      -0.090400
     24 C25         -3.5350     1.6340    -0.0130 c6         1 13Y       0.121700
     25 C26         -2.1260     1.4100     0.5310 c6         1 13Y       0.146800
     26 N27         -4.3680     0.4220     0.0560 n          1 13Y      -0.301000
     27 C28         -4.7990    -0.1450    -1.1150 cc         1 13Y       0.003600
     28 C29         -5.5690    -1.2460    -1.1980 cd         1 13Y      -0.273400
     29 C30         -5.9730    -1.8800     0.0370 c          1 13Y       0.590200
     30 O31         -6.6670    -2.8790     0.1210 o          1 13Y      -0.543000
     31 N32         -5.5000    -1.2540     1.1740 ns         1 13Y      -0.468500
     32 C34         -4.7110    -0.1340     1.2640 c          1 13Y       0.617000
     33 O35         -4.3580     0.3060     2.3400 o          1 13Y      -0.565000
     34 C36         -6.0170    -1.8310    -2.4970 c3         1 13Y      -0.015900
     35 C37          2.2390    -2.0750    -2.7650 c          1 13Y       0.716600
     36 O38          1.6250    -2.2830    -3.8290 o          1 13Y      -0.704000
     37 O39          3.2790    -2.6320    -2.3760 o          1 13Y      -0.704000
     38 H1           6.4880     0.1480     0.1520 ha         1 13Y       0.100000
     39 H2           4.1300     0.0590    -0.5010 ha         1 13Y       0.131000
     40 H3           7.5130    -1.6690     1.4820 ha         1 13Y       0.112000
     41 H4           3.7350    -3.7130     1.5180 ha         1 13Y       0.137000
     42 H5           0.7410     0.0310    -3.5030 ha         1 13Y       0.133000
     43 H6          -0.1460     1.8870    -2.1620 ha         1 13Y       0.105000
     44 H7           1.4280     0.0460     1.3630 ha         1 13Y       0.105000
     45 H8           0.2090     2.0170     1.5920 h1         1 13Y       0.026700
     46 H9           0.8300     3.8390    -0.7730 hc         1 13Y       0.037200
     47 H10          0.7210     4.3320     0.9070 hc         1 13Y       0.037200
     48 H11          2.8300     2.4290    -0.1580 hc         1 13Y       0.071700
     49 H12          2.9750     5.3940     0.5550 hc         1 13Y       0.028367
     50 H13          4.3540     4.3780     0.1400 hc         1 13Y       0.028367
     51 H14          3.1080     4.7070    -1.0640 hc         1 13Y       0.028367
     52 H15          2.3200     2.0710     2.2760 hc         1 13Y       0.028367
     53 H16          3.9140     2.7690     2.0350 hc         1 13Y       0.028367
     54 H17          2.5760     3.7880     2.5670 hc         1 13Y       0.028367
     55 H19         -1.8210     3.6490     1.9530 h1         1 13Y       0.033200
     56 H20         -1.2120     4.6130     0.6100 h1         1 13Y       0.033200
     57 H21         -3.6210     4.9260     0.9020 hc         1 13Y       0.043200
     58 H22         -3.2170     4.2970    -0.6860 hc         1 13Y       0.043200
     59 H23         -4.3370     2.7200     1.6730 hc         1 13Y       0.054700
     60 H24         -5.1570     3.0510     0.1480 hc         1 13Y       0.054700
     61 H25         -3.4200     1.8270    -1.0810 h1         1 13Y       0.068700
     62 H26         -1.7130     0.5170     0.0610 h1         1 13Y       0.064700
     63 H27         -2.1520     1.2290     1.6150 h1         1 13Y       0.064700
     64 H28         -4.4730     0.3630    -2.0120 h4         1 13Y       0.209000
     65 H29         -5.7470    -1.6740     2.0620 hn         1 13Y       0.337500
     66 H30         -5.6760    -2.8610    -2.6100 hc         1 13Y       0.045033
     67 H31         -7.1050    -1.8420    -2.5750 hc         1 13Y       0.045033
     68 H32         -5.6280    -1.2560    -3.3360 hc         1 13Y       0.045033
@<TRIPOS>BOND
     1     1     5 1   
     2     1     6 ar  
     3     1     7 ar  
     4     2     3 ar  
     5     2     6 ar  
     6     2    38 1   
     7     3     4 ar  
     8     3    39 1   
     9     4     7 ar  
    10     4     8 1   
    11     6    40 1   
    12     7    41 1   
    13     8     9 1   
    14     9    10 ar  
    15     9    14 ar  
    16    10    11 ar  
    17    10    35 1   
    18    11    12 ar  
    19    11    42 1   
    20    12    13 ar  
    21    12    43 1   
    22    13    14 ar  
    23    13    15 1   
    24    14    44 1   
    25    15    16 1   
    26    15    20 1   
    27    15    45 1   
    28    16    17 1   
    29    16    46 1   
    30    16    47 1   
    31    17    18 1   
    32    17    19 1   
    33    17    48 1   
    34    18    49 1   
    35    18    50 1   
    36    18    51 1   
    37    19    52 1   
    38    19    53 1   
    39    19    54 1   
    40    20    21 1   
    41    20    25 1   
    42    21    22 1   
    43    21    55 1   
    44    21    56 1   
    45    22    23 1   
    46    22    57 1   
    47    22    58 1   
    48    23    24 1   
    49    23    59 1   
    50    23    60 1   
    51    24    25 1   
    52    24    26 1   
    53    24    61 1   
    54    25    62 1   
    55    25    63 1   
    56    26    27 1   
    57    26    32 1   
    58    27    28 2   
    59    27    64 1   
    60    28    29 1   
    61    28    34 1   
    62    29    30 2   
    63    29    31 1   
    64    31    32 1   
    65    31    65 1   
    66    32    33 2   
    67    34    66 1   
    68    34    67 1   
    69    34    68 1   
    70    35    36 1   
    71    35    37 1   
@<TRIPOS>SUBSTRUCTURE
     1 13Y         1 TEMP              0 ****  ****    0 ROOT
