@<TRIPOS>MOLECULE
13Y
   68    71     1     0     0
SMALL
No Charge or Current Charge


@<TRIPOS>ATOM
      1 C2           4.5010    -2.8650     2.4360 ca         1 13Y       0.154000
      2 C4           5.3040    -0.7210     1.6120 ca         1 13Y      -0.074000
      3 C5           4.3670    -0.7780     0.5660 ca         1 13Y      -0.166000
      4 C6           3.4870    -1.8760     0.4630 ca         1 13Y       0.213100
      5 Cl1          4.5900    -4.1740     3.6080 cl         1 13Y      -0.243000
      6 C3           5.3690    -1.7660     2.5490 ca         1 13Y      -0.166000
      7 C7           3.5640    -2.9230     1.3940 ca         1 13Y      -0.145000
      8 O8           2.5590    -1.9560    -0.5530 os         1 13Y      -0.226200
      9 C9           1.9430    -0.8440    -1.0820 ca         1 13Y       0.093100
     10 C10          1.7680    -0.7240    -2.4770 ca         1 13Y      -0.114600
     11 C11          1.1110     0.4160    -2.9880 ca         1 13Y      -0.095000
     12 C12          0.6510     1.4240    -2.1230 ca         1 13Y      -0.117000
     13 C13          0.8230     1.3050    -0.7300 ca         1 13Y      -0.119300
     14 C14          1.4540     0.1560    -0.2180 ca         1 13Y      -0.142000
     15 C15          0.3380     2.4080     0.2210 c3         1 13Y       0.241800
     16 C16          1.1700     3.7100    -0.0120 c3         1 13Y      -0.065400
     17 C17          2.7190     3.5420    -0.0130 c3         1 13Y      -0.061700
     18 C18          3.4160     4.8680    -0.3910 c3         1 13Y      -0.085600
     19 C19          3.2650     3.0050     1.3330 c3         1 13Y      -0.085600
     20 N20         -1.1440     2.5980     0.1240 n3         1 13Y      -0.718600
     21 C22         -1.6860     3.6380     1.0550 c6         1 13Y       0.161800
     22 C23         -3.2040     3.8800     0.8490 c6         1 13Y      -0.074400
     23 C24         -4.0150     2.5760     1.0140 c6         1 13Y      -0.090400
     24 C25         -3.4280     1.4810     0.0940 c6         1 13Y       0.121700
     25 C26         -1.8950     1.3060     0.2930 c6         1 13Y       0.146800
     26 N27         -4.2040     0.2030     0.1240 n          1 13Y      -0.301000
     27 C28         -4.9320    -0.1880    -1.0060 cc         1 13Y       0.003600
     28 C29         -5.6520    -1.3630    -1.0130 cd         1 13Y      -0.273400
     29 C30         -5.6650    -2.2330     0.1860 c          1 13Y       0.590200
     30 O31         -6.2710    -3.2880     0.2750 o          1 13Y      -0.543000
     31 N32         -4.9280    -1.7530     1.2200 ns         1 13Y      -0.468500
     32 C34         -4.2020    -0.6080     1.2840 c          1 13Y       0.617000
     33 O35         -3.5980    -0.3320     2.3070 o          1 13Y      -0.565000
     34 C36         -6.4570    -1.8400    -2.2010 c3         1 13Y      -0.015900
     35 C37          2.2700    -1.7840    -3.4250 c          1 13Y       0.716600
     36 O38          1.5000    -2.1920    -4.2840 o          1 13Y      -0.704000
     37 O39          3.4420    -2.1280    -3.3550 o          1 13Y      -0.704000
     38 H1           5.9790     0.1280     1.6940 ha         1 13Y       0.100000
     39 H2           4.3270     0.0280    -0.1620 ha         1 13Y       0.131000
     40 H3           6.0930    -1.7270     3.3590 ha         1 13Y       0.112000
     41 H4           2.8940    -3.7730     1.3100 ha         1 13Y       0.137000
     42 H5           0.9670     0.5240    -4.0610 ha         1 13Y       0.133000
     43 H6           0.1550     2.3000    -2.5360 ha         1 13Y       0.105000
     44 H7           1.5720     0.0420     0.8570 ha         1 13Y       0.105000
     45 H8           0.5590     2.0770     1.2450 h1         1 13Y       0.026700
     46 H9           0.8610     4.1510    -0.9670 hc         1 13Y       0.037200
     47 H10          0.9260     4.4450     0.7630 hc         1 13Y       0.037200
     48 H11          2.9880     2.8160    -0.7900 hc         1 13Y       0.071700
     49 H12          3.2010     5.6490     0.3480 hc         1 13Y       0.028367
     50 H13          4.5040     4.7350    -0.4430 hc         1 13Y       0.028367
     51 H14          3.0740     5.2200    -1.3720 hc         1 13Y       0.028367
     52 H15          2.8600     2.0140     1.5620 hc         1 13Y       0.028367
     53 H16          4.3570     2.9130     1.2970 hc         1 13Y       0.028367
     54 H17          3.0060     3.6810     2.1570 hc         1 13Y       0.028367
     55 H19         -1.5060     3.3440     2.0990 h1         1 13Y       0.033200
     56 H20         -1.1870     4.6040     0.8990 h1         1 13Y       0.033200
     57 H21         -3.5590     4.6340     1.5640 hc         1 13Y       0.043200
     58 H22         -3.3730     4.2980    -0.1530 hc         1 13Y       0.043200
     59 H23         -3.9830     2.2570     2.0640 hc         1 13Y       0.054700
     60 H24         -5.0700     2.7540     0.7670 hc         1 13Y       0.054700
     61 H25         -3.5230     1.8830    -0.9250 h1         1 13Y       0.068700
     62 H26         -1.5580     0.5550    -0.4360 h1         1 13Y       0.064700
     63 H27         -1.6940     0.8920     1.2900 h1         1 13Y       0.064700
     64 H28         -4.8670     0.5100    -1.8360 h4         1 13Y       0.209000
     65 H29         -4.9180    -2.3210     2.0510 hn         1 13Y       0.337500
     66 H30         -6.0980    -2.8140    -2.5570 hc         1 13Y       0.045033
     67 H31         -7.5180    -1.9470    -1.9430 hc         1 13Y       0.045033
     68 H32         -6.3910    -1.1380    -3.0400 hc         1 13Y       0.045033
@<TRIPOS>BOND
     1     1     5 1   
     2     1     6 ar  
     3     1     7 ar  
     4     2     3 ar  
     5     2     6 ar  
     6     2    38 1   
     7     3     4 ar  
     8     3    39 1   
     9     4     7 ar  
    10     4     8 1   
    11     6    40 1   
    12     7    41 1   
    13     8     9 1   
    14     9    10 ar  
    15     9    14 ar  
    16    10    11 ar  
    17    10    35 1   
    18    11    12 ar  
    19    11    42 1   
    20    12    13 ar  
    21    12    43 1   
    22    13    14 ar  
    23    13    15 1   
    24    14    44 1   
    25    15    16 1   
    26    15    20 1   
    27    15    45 1   
    28    16    17 1   
    29    16    46 1   
    30    16    47 1   
    31    17    18 1   
    32    17    19 1   
    33    17    48 1   
    34    18    49 1   
    35    18    50 1   
    36    18    51 1   
    37    19    52 1   
    38    19    53 1   
    39    19    54 1   
    40    20    21 1   
    41    20    25 1   
    42    21    22 1   
    43    21    55 1   
    44    21    56 1   
    45    22    23 1   
    46    22    57 1   
    47    22    58 1   
    48    23    24 1   
    49    23    59 1   
    50    23    60 1   
    51    24    25 1   
    52    24    26 1   
    53    24    61 1   
    54    25    62 1   
    55    25    63 1   
    56    26    27 1   
    57    26    32 1   
    58    27    28 2   
    59    27    64 1   
    60    28    29 1   
    61    28    34 1   
    62    29    30 2   
    63    29    31 1   
    64    31    32 1   
    65    31    65 1   
    66    32    33 2   
    67    34    66 1   
    68    34    67 1   
    69    34    68 1   
    70    35    36 1   
    71    35    37 1   
@<TRIPOS>SUBSTRUCTURE
     1 13Y         1 TEMP              0 ****  ****    0 ROOT
