@<TRIPOS>MOLECULE
13Z
   55    56     1     0     0
SMALL
bcc


@<TRIPOS>ATOM
      1 C1           1.5970     2.3720    -0.7230 c5         1 13Z       0.087700
      2 C2           2.6460     2.7200     0.3370 c5         1 13Z      -0.134400
      3 C3           1.8320     2.8780     1.6060 c5         1 13Z       0.163600
      4 C4           0.7670     1.8010     1.4810 c5         1 13Z       0.073000
      5 C6          -1.7420     0.8870     0.3860 c3         1 13Z       0.100800
      6 C7           2.1210     1.3750    -1.7840 c3         1 13Z       0.125800
      7 N1           0.4800     1.8410     0.0590 n          1 13Z      -0.488800
      8 N2           3.4340    -0.5840    -0.9400 nc         1 13Z      -0.370000
      9 N3           3.1020    -1.8070    -0.4070 nc         1 13Z      -0.362000
     10 N4          -2.6330     0.0700    -0.3980 n7         1 13Z      -0.821200
     11 C8           2.3290     0.0120    -1.2040 cd         1 13Z       0.418700
     12 F1           2.5970     2.7020     2.7460 f          1 13Z      -0.231300
     13 O1          -0.8990     1.6890    -1.7060 o          1 13Z      -0.598100
     14 O2           3.2870     1.8500    -2.3880 oh         1 13Z      -0.565800
     15 C9           1.8190    -1.8690    -0.3800 cd         1 13Z       0.472700
     16 O3           1.2720    -0.7450    -0.8800 os         1 13Z      -0.353800
     17 C12          0.4770    -2.4990     1.5720 c3         1 13Z      -0.089100
     18 C14         -0.3070    -3.1000    -0.7330 c3         1 13Z      -0.089100
     19 C16          1.6990    -4.2450     0.2520 c3         1 13Z      -0.089100
     20 C11         -3.8040    -0.4790     0.2890 c3         1 13Z       0.196200
     21 C13         -4.8150     0.6050     0.6790 c3         1 13Z      -0.100600
     22 C15         -4.4190    -1.4400    -0.7320 c3         1 13Z       0.143400
     23 C17         -3.3690    -1.2610     1.5260 c3         1 13Z      -0.100600
     24 O4          -5.6030    -2.0020    -0.2190 oh         1 13Z      -0.601800
     25 H1           1.2810     3.2710    -1.2580 h1         1 13Z       0.087700
     26 H2           3.3530     1.8970     0.4890 hc         1 13Z       0.077200
     27 H2A          3.2130     3.6120     0.0800 hc         1 13Z       0.077200
     28 H3           1.3700     3.8660     1.6610 h1         1 13Z       0.066700
     29 H4           1.1720     0.8320     1.7970 h1         1 13Z       0.063700
     30 H4A         -0.1150     2.0210     2.0810 h1         1 13Z       0.063700
     31 H6          -1.2630     0.2720     1.1480 h1         1 13Z       0.047700
     32 H6A         -2.2300     1.7140     0.9310 h1         1 13Z       0.047700
     33 H7           1.3730     1.2930    -2.5740 h1         1 13Z       0.126700
     34 HN4         -2.9400     0.5980    -1.2060 hn         1 13Z       0.382800
     35 HO2          4.0230     1.8030    -1.7670 ho         1 13Z       0.423000
     36 H12         -0.0750    -1.5580     1.5480 hc         1 13Z       0.047144
     37 H12A        -0.1840    -3.2550     1.9980 hc         1 13Z       0.047144
     38 H12B         1.3280    -2.3790     2.2430 hc         1 13Z       0.047144
     39 H14         -0.0250    -3.3340    -1.7610 hc         1 13Z       0.047144
     40 H14A        -0.9090    -3.9290    -0.3580 hc         1 13Z       0.047144
     41 H14B        -0.9380    -2.2090    -0.7380 hc         1 13Z       0.047144
     42 H16          2.5790    -4.1550     0.8900 hc         1 13Z       0.047144
     43 H16A         1.0560    -5.0170     0.6770 hc         1 13Z       0.047144
     44 H16B         2.0250    -4.5820    -0.7320 hc         1 13Z       0.047144
     45 H13         -5.1850     1.1260    -0.2080 hc         1 13Z       0.041033
     46 H13A        -5.6730     0.1900     1.2060 hc         1 13Z       0.041033
     47 H13B        -4.3620     1.3480     1.3380 hc         1 13Z       0.041033
     48 H15         -4.6160    -0.8850    -1.6620 h1         1 13Z       0.027700
     49 H15A        -3.6720    -2.2100    -0.9670 h1         1 13Z       0.027700
     50 H17         -2.9610    -0.6080     2.3000 hc         1 13Z       0.041033
     51 H17A        -4.2190    -1.7820     1.9640 hc         1 13Z       0.041033
     52 H17B        -2.6070    -2.0020     1.2750 hc         1 13Z       0.041033
     53 HO4         -5.9300    -2.6410    -0.8590 ho         1 13Z       0.407000
     54 C5          -0.6910     1.5040    -0.5160 c          1 13Z       0.680100
     55 C10          0.9220    -2.9320     0.1670 c3         1 13Z      -0.063300
@<TRIPOS>BOND
     1     1     2 1   
     2     1     6 1   
     3     1     7 1   
     4     1    25 1   
     5     2     3 1   
     6     2    26 1   
     7     2    27 1   
     8     3     4 1   
     9     3    12 1   
    10     3    28 1   
    11     4     7 1   
    12     4    29 1   
    13     4    30 1   
    14     5    10 1   
    15     5    31 1   
    16     5    32 1   
    17     5    54 1   
    18     6    11 1   
    19     6    14 1   
    20     6    33 1   
    21     7    54 1   
    22     8     9 1   
    23     8    11 2   
    24     9    15 2   
    25    10    20 1   
    26    10    34 1   
    27    11    16 1   
    28    13    54 2   
    29    14    35 1   
    30    15    16 1   
    31    15    55 1   
    32    17    36 1   
    33    17    37 1   
    34    17    38 1   
    35    17    55 1   
    36    18    39 1   
    37    18    40 1   
    38    18    41 1   
    39    18    55 1   
    40    19    42 1   
    41    19    43 1   
    42    19    44 1   
    43    19    55 1   
    44    20    21 1   
    45    20    22 1   
    46    20    23 1   
    47    21    45 1   
    48    21    46 1   
    49    21    47 1   
    50    22    24 1   
    51    22    48 1   
    52    22    49 1   
    53    23    50 1   
    54    23    51 1   
    55    23    52 1   
    56    24    53 1   
@<TRIPOS>SUBSTRUCTURE
     1 13Z         1 TEMP              0 ****  ****    0 ROOT
