@<TRIPOS>MOLECULE
13Z
   55    56     1     0     0
SMALL
No Charge or Current Charge


@<TRIPOS>ATOM
      1 C1           1.7420     2.4010    -0.7110 c5         1 13Z       0.087700
      2 C2           2.7460     2.7090     0.4450 c5         1 13Z      -0.134400
      3 C3           1.8150     3.2710     1.5380 c5         1 13Z       0.182300
      4 C4           0.6630     2.2360     1.5110 c5         1 13Z       0.073000
      5 C6          -1.7980     0.9870     0.3370 c3         1 13Z       0.100800
      6 C7           2.2870     1.3570    -1.7380 c3         1 13Z       0.149000
      7 N1           0.5580     1.9310     0.0620 n          1 13Z      -0.421800
      8 N2           3.5340    -0.6020    -0.7280 nc         1 13Z      -0.370000
      9 N3           3.1580    -1.8270    -0.2220 nc         1 13Z      -0.362000
     10 N4          -2.7450     0.0780    -0.4030 n7         1 13Z      -0.876400
     11 C8           2.4120    -0.0540    -1.1740 cd         1 13Z       0.374300
     12 F1           2.4530     3.2930     2.7790 f          1 13Z      -0.250000
     13 O1          -0.8420     1.8270    -1.7530 o          1 13Z      -0.598100
     14 O2           3.5280     1.8370    -2.3160 oh         1 13Z      -0.628000
     15 C9           1.8480    -1.9100    -0.4250 cd         1 13Z       0.428300
     16 O3           1.3090    -0.8220    -1.0240 os         1 13Z      -0.265000
     17 C12          0.4900    -2.6750     1.5330 c3         1 13Z      -0.089100
     18 C14         -0.3130    -3.1660    -0.8140 c3         1 13Z      -0.089100
     19 C16          1.6930    -4.3870     0.1060 c3         1 13Z      -0.089100
     20 C11         -3.8760    -0.5610     0.3260 c3         1 13Z       0.196200
     21 C13         -4.8500     0.5470     0.8100 c3         1 13Z      -0.100600
     22 C15         -4.5950    -1.5210    -0.6900 c3         1 13Z       0.166600
     23 C17         -3.3240    -1.3720     1.5300 c3         1 13Z      -0.100600
     24 O4          -5.7310    -2.1960    -0.1150 oh         1 13Z      -0.664000
     25 H1           1.4900     3.3220    -1.2560 h1         1 13Z       0.087700
     26 H2           3.2570     1.8080     0.8020 hc         1 13Z       0.077200
     27 H2A          3.5190     3.4280     0.1490 hc         1 13Z       0.077200
     28 H3           1.4610     4.2830     1.2980 h1         1 13Z       0.066700
     29 H4           0.9170     1.3320     2.0810 h1         1 13Z       0.063700
     30 H4A         -0.2620     2.6630     1.9210 h1         1 13Z       0.063700
     31 H6          -1.2870     0.4280     1.1300 h1         1 13Z       0.047700
     32 H6A         -2.3330     1.8180     0.8140 h1         1 13Z       0.047700
     33 H7           1.5340     1.2860    -2.5340 h1         1 13Z       0.126700
     34 HN4         -3.1250     0.6000    -1.2040 hn         1 13Z       0.438000
     35 HO2          4.2580     1.4790    -1.7620 ho         1 13Z       0.462000
     36 H12         -0.0420    -1.7160     1.5520 hc         1 13Z       0.047144
     37 H12A        -0.1810    -3.4440     1.9350 hc         1 13Z       0.047144
     38 H12B         1.3530    -2.5920     2.2050 hc         1 13Z       0.047144
     39 H14         -0.0250    -3.3840    -1.8500 hc         1 13Z       0.047144
     40 H14A        -0.9620    -3.9790    -0.4660 hc         1 13Z       0.047144
     41 H14B        -0.9080    -2.2450    -0.8160 hc         1 13Z       0.047144
     42 H16          2.5590    -4.3570     0.7790 hc         1 13Z       0.047144
     43 H16A         1.0350    -5.1950     0.4480 hc         1 13Z       0.047144
     44 H16B         2.0520    -4.6460    -0.8980 hc         1 13Z       0.047144
     45 H13         -5.1990     1.1580    -0.0310 hc         1 13Z       0.041033
     46 H13A        -5.7290     0.1090     1.2960 hc         1 13Z       0.041033
     47 H13B        -4.3740     1.2100     1.5420 hc         1 13Z       0.041033
     48 H15         -4.9170    -0.9370    -1.5620 h1         1 13Z       0.027700
     49 H15A        -3.8670    -2.2620    -1.0490 h1         1 13Z       0.027700
     50 H17         -2.8510    -0.7220     2.2750 hc         1 13Z       0.041033
     51 H17A        -4.1320    -1.9100     2.0410 hc         1 13Z       0.041033
     52 H17B        -2.5870    -2.1120     1.1970 hc         1 13Z       0.041033
     53 HO4         -6.1060    -2.7720    -0.8170 ho         1 13Z       0.446000
     54 C5          -0.6810     1.6350    -0.5510 c          1 13Z       0.613100
     55 C10          0.9420    -3.0260     0.0920 c3         1 13Z      -0.063300
@<TRIPOS>BOND
     1     1     2 1   
     2     1     6 1   
     3     1     7 1   
     4     1    25 1   
     5     2     3 1   
     6     2    26 1   
     7     2    27 1   
     8     3     4 1   
     9     3    12 1   
    10     3    28 1   
    11     4     7 1   
    12     4    29 1   
    13     4    30 1   
    14     5    10 1   
    15     5    31 1   
    16     5    32 1   
    17     5    54 1   
    18     6    11 1   
    19     6    14 1   
    20     6    33 1   
    21     7    54 1   
    22     8     9 1   
    23     8    11 2   
    24     9    15 2   
    25    10    20 1   
    26    10    34 1   
    27    11    16 1   
    28    13    54 2   
    29    14    35 1   
    30    15    16 1   
    31    15    55 1   
    32    17    36 1   
    33    17    37 1   
    34    17    38 1   
    35    17    55 1   
    36    18    39 1   
    37    18    40 1   
    38    18    41 1   
    39    18    55 1   
    40    19    42 1   
    41    19    43 1   
    42    19    44 1   
    43    19    55 1   
    44    20    21 1   
    45    20    22 1   
    46    20    23 1   
    47    21    45 1   
    48    21    46 1   
    49    21    47 1   
    50    22    24 1   
    51    22    48 1   
    52    22    49 1   
    53    23    50 1   
    54    23    51 1   
    55    23    52 1   
    56    24    53 1   
@<TRIPOS>SUBSTRUCTURE
     1 13Z         1 TEMP              0 ****  ****    0 ROOT
