@<TRIPOS>MOLECULE
140
   56    55     1     0     0
SMALL
No Charge or Current Charge


@<TRIPOS>ATOM
      1 C1          -0.1210     1.8860    -9.1080 c          1 140       0.712000
      2 O1          -0.6550     2.7480    -8.4230 o          1 140      -0.731500
      3 O2          -0.1830     1.8640   -10.3290 o          1 140      -0.731500
      4 C2           0.6210     0.7220    -8.3920 c3         1 140      -0.055000
      5 N           -0.0300     0.3400    -7.1170 ns         1 140      -0.465900
      6 C3           0.3040    -0.7570    -6.3560 c          1 140       0.583100
      7 O3           1.1750    -1.5470    -6.6960 o          1 140      -0.660100
      8 C4          -0.5210    -0.9360    -5.0750 c3         1 140      -0.161400
      9 C5           0.3040    -0.5880    -3.8140 c3         1 140      -0.061400
     10 C6          -0.4980    -0.7510    -2.5040 c3         1 140      -0.078400
     11 C7           0.3260    -0.4050    -1.2450 c3         1 140      -0.074400
     12 C8          -0.4760    -0.5680     0.0650 c3         1 140      -0.074400
     13 C9           0.3470    -0.2220     1.3250 c3         1 140      -0.074400
     14 C10         -0.4550    -0.3860     2.6350 c3         1 140      -0.074400
     15 C11          0.3680    -0.0400     3.8950 c3         1 140      -0.074400
     16 C12         -0.4340    -0.2040     5.2050 c3         1 140      -0.074400
     17 C13          0.3890     0.1420     6.4650 c3         1 140      -0.074400
     18 C14         -0.4130    -0.0210     7.7740 c3         1 140      -0.074400
     19 C15          0.4100     0.3240     9.0340 c3         1 140      -0.074400
     20 C16         -0.3920     0.1610    10.3440 c3         1 140      -0.075400
     21 C17          0.4310     0.5060    11.6040 c3         1 140      -0.075400
     22 C18         -0.3690     0.3430    12.9110 c3         1 140      -0.088100
     23 H21          1.6510     1.0400    -8.1890 h1         1 140       0.034700
     24 H22          0.6430    -0.1490    -9.0590 h1         1 140       0.034700
     25 HN          -0.7630     0.9420    -6.7570 hn         1 140       0.335500
     26 H41         -0.8390    -1.9830    -5.0040 hc         1 140       0.048700
     27 H42         -1.4020    -0.2830    -5.1020 hc         1 140       0.048700
     28 H51          0.6620     0.4460    -3.8920 hc         1 140       0.049200
     29 H52          1.1930    -1.2310    -3.7750 hc         1 140       0.049200
     30 H61         -0.8550    -1.7860    -2.4280 hc         1 140       0.032700
     31 H62         -1.3850    -0.1070    -2.5430 hc         1 140       0.032700
     32 H71          0.6830     0.6290    -1.3210 hc         1 140       0.037700
     33 H72          1.2130    -1.0490    -1.2060 hc         1 140       0.037700
     34 H81         -0.8340    -1.6030     0.1420 hc         1 140       0.035700
     35 H82         -1.3640     0.0760     0.0270 hc         1 140       0.035700
     36 H91          0.7040     0.8120     1.2490 hc         1 140       0.036700
     37 H92          1.2340    -0.8660     1.3640 hc         1 140       0.036700
     38 H101        -0.8130    -1.4200     2.7110 hc         1 140       0.035700
     39 H102        -1.3430     0.2580     2.5960 hc         1 140       0.035700
     40 H111         0.7260     0.9950     3.8190 hc         1 140       0.036700
     41 H112         1.2550    -0.6840     3.9330 hc         1 140       0.036700
     42 H121        -0.7920    -1.2380     5.2810 hc         1 140       0.036700
     43 H122        -1.3220     0.4410     5.1660 hc         1 140       0.036700
     44 H131         0.7470     1.1770     6.3880 hc         1 140       0.036700
     45 H132         1.2760    -0.5020     6.5030 hc         1 140       0.036700
     46 H141        -0.7710    -1.0560     7.8500 hc         1 140       0.036700
     47 H142        -1.3010     0.6230     7.7360 hc         1 140       0.036700
     48 H151         0.7680     1.3590     8.9580 hc         1 140       0.036700
     49 H152         1.2980    -0.3200     9.0730 hc         1 140       0.036700
     50 H161        -0.7500    -0.8740    10.4200 hc         1 140       0.036700
     51 H162        -1.2790     0.8050    10.3060 hc         1 140       0.036700
     52 H171         0.7890     1.5410    11.5330 hc         1 140       0.036200
     53 H172         1.3190    -0.1370    11.6470 hc         1 140       0.036200
     54 H181         0.2550     0.5990    13.7760 hc         1 140       0.030033
     55 H182        -1.2460     1.0010    12.9140 hc         1 140       0.030033
     56 H183        -0.7110    -0.6920    13.0300 hc         1 140       0.030033
@<TRIPOS>BOND
     1     1     2 1   
     2     1     3 1   
     3     1     4 1   
     4     4     5 1   
     5     4    23 1   
     6     4    24 1   
     7     5     6 1   
     8     5    25 1   
     9     6     7 2   
    10     6     8 1   
    11     8     9 1   
    12     8    26 1   
    13     8    27 1   
    14     9    10 1   
    15     9    28 1   
    16     9    29 1   
    17    10    11 1   
    18    10    30 1   
    19    10    31 1   
    20    11    12 1   
    21    11    32 1   
    22    11    33 1   
    23    12    13 1   
    24    12    34 1   
    25    12    35 1   
    26    13    14 1   
    27    13    36 1   
    28    13    37 1   
    29    14    15 1   
    30    14    38 1   
    31    14    39 1   
    32    15    16 1   
    33    15    40 1   
    34    15    41 1   
    35    16    17 1   
    36    16    42 1   
    37    16    43 1   
    38    17    18 1   
    39    17    44 1   
    40    17    45 1   
    41    18    19 1   
    42    18    46 1   
    43    18    47 1   
    44    19    20 1   
    45    19    48 1   
    46    19    49 1   
    47    20    21 1   
    48    20    50 1   
    49    20    51 1   
    50    21    22 1   
    51    21    52 1   
    52    21    53 1   
    53    22    54 1   
    54    22    55 1   
    55    22    56 1   
@<TRIPOS>SUBSTRUCTURE
     1 140         1 TEMP              0 ****  ****    0 ROOT
