@<TRIPOS>MOLECULE
140
   56    55     1     0     0
SMALL
bcc


@<TRIPOS>ATOM
      1 C1          -0.7240    -0.0100    -9.7330 c          1 140       0.922600
      2 O1          -1.9090    -0.0070    -9.3470 o          1 140      -0.836800
      3 O2          -0.3090    -0.0070   -10.9050 o          1 140      -0.836800
      4 C2           0.3720    -0.0200    -8.6490 c3         1 140      -0.055000
      5 N           -0.1990    -0.0150    -7.3280 ns         1 140      -0.532900
      6 C3           0.5180    -0.0180    -6.1990 c          1 140       0.650100
      7 O3           1.7450    -0.0240    -6.1970 o          1 140      -0.660100
      8 C4          -0.3040    -0.0180    -4.9230 c3         1 140      -0.161400
      9 C5           0.5270    -0.0050    -3.6510 c3         1 140      -0.061400
     10 C6          -0.3400    -0.0080    -2.3970 c3         1 140      -0.078400
     11 C7           0.4800     0.0000    -1.1130 c3         1 140      -0.074400
     12 C8          -0.3740    -0.0070     0.1490 c3         1 140      -0.074400
     13 C9           0.4510    -0.0010     1.4300 c3         1 140      -0.074400
     14 C10         -0.3970    -0.0060     2.6950 c3         1 140      -0.074400
     15 C11          0.4320    -0.0070     3.9740 c3         1 140      -0.074400
     16 C12         -0.4140    -0.0080     5.2410 c3         1 140      -0.074400
     17 C13          0.4160    -0.0100     6.5190 c3         1 140      -0.074400
     18 C14         -0.4300    -0.0130     7.7860 c3         1 140      -0.074400
     19 C15          0.3990    -0.0140     9.0650 c3         1 140      -0.074400
     20 C16         -0.4490    -0.0170    10.3300 c3         1 140      -0.075400
     21 C17          0.3750    -0.0170    11.6120 c3         1 140      -0.075400
     22 C18         -0.4880    -0.0170    12.8670 c3         1 140      -0.088100
     23 H21          1.0220     0.8480    -8.7950 h1         1 140       0.034700
     24 H22          1.0050    -0.9010    -8.7970 h1         1 140       0.034700
     25 HN          -1.2080    -0.0140    -7.2980 hn         1 140       0.335500
     26 H41         -0.9590    -0.8960    -4.9320 hc         1 140       0.048700
     27 H42         -0.9750     0.8470    -4.9400 hc         1 140       0.048700
     28 H51          1.1750     0.8750    -3.6390 hc         1 140       0.049200
     29 H52          1.1910    -0.8740    -3.6310 hc         1 140       0.049200
     30 H61         -0.9940    -0.8870    -2.4060 hc         1 140       0.032700
     31 H62         -1.0040     0.8640    -2.4100 hc         1 140       0.032700
     32 H71          1.1310     0.8820    -1.1050 hc         1 140       0.037700
     33 H72          1.1470    -0.8690    -1.1040 hc         1 140       0.037700
     34 H81         -1.0260    -0.8870     0.1410 hc         1 140       0.035700
     35 H82         -1.0400     0.8630     0.1420 hc         1 140       0.035700
     36 H91          1.1050     0.8790     1.4350 hc         1 140       0.036700
     37 H92          1.1170    -0.8720     1.4360 hc         1 140       0.036700
     38 H101        -1.0540    -0.8830     2.6880 hc         1 140       0.035700
     39 H102        -1.0600     0.8670     2.6920 hc         1 140       0.035700
     40 H111         1.0910     0.8690     3.9790 hc         1 140       0.036700
     41 H112         1.0920    -0.8820     3.9770 hc         1 140       0.036700
     42 H121        -1.0740    -0.8830     5.2360 hc         1 140       0.036700
     43 H122        -1.0730     0.8670     5.2380 hc         1 140       0.036700
     44 H131         1.0740     0.8660     6.5250 hc         1 140       0.036700
     45 H132         1.0770    -0.8840     6.5220 hc         1 140       0.036700
     46 H141        -1.0880    -0.8890     7.7810 hc         1 140       0.036700
     47 H142        -1.0910     0.8610     7.7830 hc         1 140       0.036700
     48 H151         1.0570     0.8630     9.0710 hc         1 140       0.036700
     49 H152         1.0610    -0.8880     9.0680 hc         1 140       0.036700
     50 H161        -1.1070    -0.8940    10.3230 hc         1 140       0.036700
     51 H162        -1.1110     0.8570    10.3260 hc         1 140       0.036700
     52 H171         1.0330     0.8580    11.6190 hc         1 140       0.036200
     53 H172         1.0340    -0.8910    11.6190 hc         1 140       0.036200
     54 H181         0.1160    -0.0160    13.7740 hc         1 140       0.030033
     55 H182        -1.1330     0.8630    12.8990 hc         1 140       0.030033
     56 H183        -1.1330    -0.8980    12.8990 hc         1 140       0.030033
@<TRIPOS>BOND
     1     1     2 1   
     2     1     3 1   
     3     1     4 1   
     4     4     5 1   
     5     4    23 1   
     6     4    24 1   
     7     5     6 1   
     8     5    25 1   
     9     6     7 2   
    10     6     8 1   
    11     8     9 1   
    12     8    26 1   
    13     8    27 1   
    14     9    10 1   
    15     9    28 1   
    16     9    29 1   
    17    10    11 1   
    18    10    30 1   
    19    10    31 1   
    20    11    12 1   
    21    11    32 1   
    22    11    33 1   
    23    12    13 1   
    24    12    34 1   
    25    12    35 1   
    26    13    14 1   
    27    13    36 1   
    28    13    37 1   
    29    14    15 1   
    30    14    38 1   
    31    14    39 1   
    32    15    16 1   
    33    15    40 1   
    34    15    41 1   
    35    16    17 1   
    36    16    42 1   
    37    16    43 1   
    38    17    18 1   
    39    17    44 1   
    40    17    45 1   
    41    18    19 1   
    42    18    46 1   
    43    18    47 1   
    44    19    20 1   
    45    19    48 1   
    46    19    49 1   
    47    20    21 1   
    48    20    50 1   
    49    20    51 1   
    50    21    22 1   
    51    21    52 1   
    52    21    53 1   
    53    22    54 1   
    54    22    55 1   
    55    22    56 1   
@<TRIPOS>SUBSTRUCTURE
     1 140         1 TEMP              0 ****  ****    0 ROOT
