@<TRIPOS>MOLECULE
141
   15    16     1     0     0
SMALL
No Charge or Current Charge


@<TRIPOS>ATOM
      1 O6          15.3220    10.0590    24.0800 o          1 141      -0.551000
      2 C6          16.4670    10.4780    24.0580 c          1 141       0.625600
      3 C5          17.0500    11.2850    22.9880 cc         1 141      -0.364600
      4 C7          16.5000    11.7640    21.8260 cd         1 141       0.041000
      5 N8          17.5410    12.4940    21.2070 na         1 141      -0.207000
      6 N9          18.7090    12.4270    22.0050 na         1 141      -0.246000
      7 C4          18.3600    11.6860    23.0870 cc         1 141       0.146000
      8 N3          19.1750    11.4440    24.0750 nd         1 141      -0.447400
      9 C2          18.6700    10.6690    25.1450 c          1 141       0.724400
     10 N1          17.3660    10.2400    25.0610 ns         1 141      -0.500500
     11 H1          15.5080    11.6460    21.3990 h4         1 141       0.182000
     12 H2          17.5860    12.8970    20.2730 hn         1 141       0.395000
     13 H4          17.0340     9.6900    25.8360 hn         1 141       0.333500
     14 H5          19.4950    13.0540    21.8520 hn         1 141       0.402000
     15 O2          19.3660    10.3910    26.1060 o          1 141      -0.533000
@<TRIPOS>BOND
     1     1     2 2   
     2     2     3 1   
     3     2    10 1   
     4     3     4 2   
     5     3     7 1   
     6     4     5 1   
     7     4    11 1   
     8     5     6 1   
     9     5    12 1   
    10     6     7 1   
    11     6    14 1   
    12     7     8 2   
    13     8     9 1   
    14     9    10 1   
    15     9    15 2   
    16    10    13 1   
@<TRIPOS>SUBSTRUCTURE
     1 141         1 TEMP              0 ****  ****    0 ROOT
