@<TRIPOS>MOLECULE
141
   15    16     1     0     0
SMALL
abcg2


@<TRIPOS>ATOM
      1 O6          15.3090    10.0090    24.0910 o          1 141      -0.551000
      2 C6          16.4480    10.4660    24.0470 c          1 141       0.625600
      3 C5          17.0140    11.2740    22.9930 cc         1 141      -0.364600
      4 C7          16.5430    11.7780    21.7930 cd         1 141       0.041000
      5 N8          17.5300    12.4670    21.2260 na         1 141      -0.207000
      6 N9          18.6380    12.4320    22.0210 na         1 141      -0.246000
      7 C4          18.3630    11.7050    23.1300 cc         1 141       0.146000
      8 N3          19.2060    11.4660    24.1200 nd         1 141      -0.447400
      9 C2          18.7060    10.7100    25.1330 c          1 141       0.724400
     10 N1          17.3690    10.2490    25.0520 ns         1 141      -0.500500
     11 H1          15.5830    11.6930    21.3110 h4         1 141       0.182000
     12 H2          17.5400    12.9770    20.3540 hn         1 141       0.395000
     13 H4          17.0590     9.6900    25.8370 hn         1 141       0.333500
     14 H5          19.4860    12.9130    21.7580 hn         1 141       0.402000
     15 O2          19.3540    10.3960    26.1320 o          1 141      -0.533000
@<TRIPOS>BOND
     1     1     2 2   
     2     2     3 1   
     3     2    10 1   
     4     3     4 2   
     5     3     7 1   
     6     4     5 1   
     7     4    11 1   
     8     5     6 1   
     9     5    12 1   
    10     6     7 1   
    11     6    14 1   
    12     7     8 2   
    13     8     9 1   
    14     9    10 1   
    15     9    15 2   
    16    10    13 1   
@<TRIPOS>SUBSTRUCTURE
     1 141         1 TEMP              0 ****  ****    0 ROOT
