@<TRIPOS>MOLECULE
142
   29    29     1     0     0
SMALL
No Charge or Current Charge


@<TRIPOS>ATOM
      1 NN           0.5950    -0.6080     3.3250 n7         1 142      -0.635200
      2 N            0.5020     0.2860     4.4890 n8         1 142      -0.773000
      3 CA           0.3970    -0.0110     1.9460 c3         1 142       0.053200
      4 CB           0.7420    -1.1520     0.9320 c3         1 142      -0.020100
      5 CB1          1.3960     1.1790     1.7650 c3         1 142      -0.043100
      6 CG           0.6950    -0.7450    -0.5420 ca         1 142      -0.031300
      7 CD1         -0.5170    -0.8030    -1.2620 ca         1 142      -0.124000
      8 CE1         -0.5540    -0.4410    -2.6200 ca         1 142       0.039100
      9 CD2          1.8720    -0.3360    -1.2030 ca         1 142      -0.110000
     10 CE2          1.8380     0.0270    -2.5610 ca         1 142      -0.131000
     11 CZ           0.6270    -0.0240    -3.2670 ca         1 142       0.092100
     12 OH           0.5830     0.3250    -4.5840 oh         1 142      -0.553100
     13 OE1         -1.7320    -0.4940    -3.3200 oh         1 142      -0.572100
     14 C           -1.1130     0.4470     1.7070 c          1 142       0.706000
     15 O           -1.3540     1.6010     1.3680 o          1 142      -0.732000
     16 OXT         -2.0070    -0.3690     1.9090 o          1 142      -0.732000
     17 HNN         -0.0010    -1.4500     3.4280 hn         1 142       0.374000
     18 HN1         -0.4420     0.3260     4.9070 hn         1 142       0.378500
     19 HN2          1.1660     0.0480     5.2440 hn         1 142       0.378500
     20 HB1          1.7420    -1.5410     1.1620 hc         1 142       0.035200
     21 HB2          0.0610    -1.9970     1.0940 hc         1 142       0.035200
     22 HB11         2.4310     0.8490     1.9150 hc         1 142       0.024033
     23 HB12         1.3250     1.6070     0.7580 hc         1 142       0.024033
     24 HB13         1.1910     1.9890     2.4740 hc         1 142       0.024033
     25 HD1         -1.4250    -1.1320    -0.7610 ha         1 142       0.139000
     26 HD2          2.8150    -0.2970    -0.6620 ha         1 142       0.109000
     27 HE2          2.7490     0.3450    -3.0620 ha         1 142       0.110000
     28 HH          -0.3550     0.2090    -4.8590 ho         1 142       0.467000
     29 HE1         -2.4490    -0.7960    -2.7180 ho         1 142       0.467000
@<TRIPOS>BOND
     1     1     2 1   
     2     1     3 1   
     3     1    17 1   
     4     2    18 1   
     5     2    19 1   
     6     3     4 1   
     7     3     5 1   
     8     3    14 1   
     9     4     6 1   
    10     4    20 1   
    11     4    21 1   
    12     5    22 1   
    13     5    23 1   
    14     5    24 1   
    15     6     7 ar  
    16     6     9 ar  
    17     7     8 ar  
    18     7    25 1   
    19     8    11 ar  
    20     8    13 1   
    21     9    10 ar  
    22     9    26 1   
    23    10    11 ar  
    24    10    27 1   
    25    11    12 1   
    26    12    28 1   
    27    13    29 1   
    28    14    15 1   
    29    14    16 1   
@<TRIPOS>SUBSTRUCTURE
     1 142         1 TEMP              0 ****  ****    0 ROOT
