@<TRIPOS>MOLECULE
142
   29    29     1     0     0
SMALL
bcc


@<TRIPOS>ATOM
      1 NN           0.6700    -0.5890     3.2750 n7         1 142      -0.580000
      2 N            0.2340     0.2730     4.3070 n8         1 142      -0.662600
      3 CA           0.5250     0.0360     1.9570 c3         1 142       0.053200
      4 CB           0.7920    -1.1050     0.9520 c3         1 142      -0.020100
      5 CB1          1.5630     1.1360     1.8190 c3         1 142      -0.043100
      6 CG           0.7020    -0.7190    -0.4960 ca         1 142      -0.031300
      7 CD1         -0.5120    -0.8060    -1.1770 ca         1 142      -0.142000
      8 CE1         -0.6150    -0.4520    -2.5120 ca         1 142       0.039100
      9 CD2          1.8140    -0.2700    -1.1980 ca         1 142      -0.128000
     10 CE2          1.7220     0.0860    -2.5380 ca         1 142      -0.149000
     11 CZ           0.5130    -0.0030    -3.2090 ca         1 142       0.092100
     12 OH           0.4510     0.3400    -4.5170 oh         1 142      -0.514100
     13 OE1         -1.7720    -0.5120    -3.2190 oh         1 142      -0.533100
     14 C           -0.9270     0.5510     1.7370 c          1 142       0.916600
     15 O           -1.0880     1.6830     1.2470 o          1 142      -0.837300
     16 OXT         -1.8340    -0.2440     2.0730 o          1 142      -0.837300
     17 HNN          0.0950    -1.4260     3.2750 hn         1 142       0.318800
     18 HN1         -0.7650     0.1700     4.4550 hn         1 142       0.323300
     19 HN2          0.6890    -0.0160     5.1620 hn         1 142       0.323300
     20 HB1          1.7870    -1.5100     1.1600 hc         1 142       0.035200
     21 HB2          0.0760    -1.9070     1.1530 hc         1 142       0.035200
     22 HB11         2.5720     0.7210     1.8840 hc         1 142       0.024033
     23 HB12         1.4750     1.6580     0.8690 hc         1 142       0.024033
     24 HB13         1.4470     1.8700     2.6160 hc         1 142       0.024033
     25 HD1         -1.3970    -1.1470    -0.6510 ha         1 142       0.157000
     26 HD2          2.7730    -0.2050    -0.6990 ha         1 142       0.127000
     27 HE2          2.6000     0.4240    -3.0750 ha         1 142       0.128000
     28 HH          -0.3930     0.0620    -4.8910 ho         1 142       0.428000
     29 HE1         -2.4220    -1.0550    -2.7600 ho         1 142       0.428000
@<TRIPOS>BOND
     1     1     2 1   
     2     1     3 1   
     3     1    17 1   
     4     2    18 1   
     5     2    19 1   
     6     3     4 1   
     7     3     5 1   
     8     3    14 1   
     9     4     6 1   
    10     4    20 1   
    11     4    21 1   
    12     5    22 1   
    13     5    23 1   
    14     5    24 1   
    15     6     7 ar  
    16     6     9 ar  
    17     7     8 ar  
    18     7    25 1   
    19     8    11 ar  
    20     8    13 1   
    21     9    10 ar  
    22     9    26 1   
    23    10    11 ar  
    24    10    27 1   
    25    11    12 1   
    26    12    28 1   
    27    13    29 1   
    28    14    15 1   
    29    14    16 1   
@<TRIPOS>SUBSTRUCTURE
     1 142         1 TEMP              0 ****  ****    0 ROOT
