@<TRIPOS>MOLECULE
143
   28    28     1     0     0
SMALL
bcc


@<TRIPOS>ATOM
      1 N           86.1280    33.4720    26.2210 n8         1 143      -0.878800
      2 CA          87.1200    32.4480    25.8850 c3         1 143       0.015500
      3 CB          86.4810    31.4520    24.9340 c3         1 143       0.054700
      4 SG          87.6030    30.1100    24.4470 ss         1 143      -0.311200
      5 C           88.3470    33.1640    25.2660 c          1 143       0.946600
      6 O           89.1470    33.6550    26.0890 o          1 143      -0.837300
      7 CI          89.6020    28.3520    28.4370 c3         1 143       0.065700
      8 NI          90.8980    28.9100    28.0890 n8         1 143      -0.869800
      9 CJ          89.7010    26.9140    29.0290 c          1 143       0.945600
     10 OJ1         88.6040    26.4090    29.3330 o          1 143      -0.832300
     11 OJ2         90.8300    26.4120    29.1390 o          1 143      -0.832300
     12 CF          88.6310    28.3530    27.2990 c2         1 143       0.102900
     13 OF          88.9480    27.5280    26.2610 os         1 143      -0.128400
     14 NX          87.8880    27.6000    25.3160 n7         1 143      -0.513700
     15 CD          87.1240    28.7970    25.6540 c5         1 143       0.261800
     16 CE          87.5520    29.0880    27.0520 c2         1 143      -0.346200
     17 OXT         88.4150    33.2250    24.0240 o          1 143      -0.837300
     18 H           86.5640    34.1650    26.8180 hn         1 143       0.309300
     19 H2          85.3980    33.0550    26.7870 hn         1 143       0.309300
     20 HA          87.4660    31.9040    26.7750 h1         1 143       0.023700
     21 HB2         85.5860    31.0010    25.3730 h1         1 143       0.045200
     22 HB3         86.1720    31.9590    24.0200 h1         1 143       0.045200
     23 HI          89.1590    28.9860    29.2120 h1         1 143       0.056700
     24 HI1         90.7770    29.7990    27.6200 hn         1 143       0.337800
     25 HI2         91.3770    28.2990    27.4420 hn         1 143       0.337800
     26 HX          87.3120    26.7890    25.5300 hn         1 143       0.331800
     27 HD          86.0570    28.6030    25.5250 h2         1 143       0.042700
     28 HE          87.1170    29.8290    27.7010 ha         1 143       0.155000
@<TRIPOS>BOND
     1     1     2 1   
     2     1    18 1   
     3     1    19 1   
     4     2     3 1   
     5     2     5 1   
     6     2    20 1   
     7     3     4 1   
     8     3    21 1   
     9     3    22 1   
    10     4    15 1   
    11     5     6 1   
    12     5    17 1   
    13     7     8 1   
    14     7     9 1   
    15     7    12 1   
    16     7    23 1   
    17     8    24 1   
    18     8    25 1   
    19     9    10 1   
    20     9    11 1   
    21    12    13 1   
    22    12    16 2   
    23    13    14 1   
    24    14    15 1   
    25    14    26 1   
    26    15    16 1   
    27    15    27 1   
    28    16    28 1   
@<TRIPOS>SUBSTRUCTURE
     1 143         1 TEMP              0 ****  ****    0 ROOT
