@<TRIPOS>MOLECULE
144
   20    19     1     0     0
SMALL
No Charge or Current Charge


@<TRIPOS>ATOM
      1 C1           0.0260     1.5710     0.9390 c3         1 144       0.085900
      2 N            0.0280     0.3560    -0.0160 n4         1 144      -0.645000
      3 C2           0.0750    -0.9340     0.8060 c3         1 144       0.343267
      4 O2           0.2230    -2.0410    -0.0860 oh         1 144      -0.611333
      5 C3          -1.2480     0.3720    -0.8600 c3         1 144       0.343267
      6 O3          -2.3790     0.3660     0.0140 oh         1 144      -0.611333
      7 C4           1.2280     0.4590    -0.9620 c3         1 144       0.343267
      8 O4           2.4330     0.4680    -0.1980 oh         1 144      -0.611333
      9 H11          0.9440     1.5710     1.5310 hx         1 144       0.099700
     10 H12         -0.0290     2.4920     0.3550 hx         1 144       0.099700
     11 H13         -0.8390     1.5090     1.6030 hx         1 144       0.099700
     12 H21          0.9060    -0.8540     1.5150 hx         1 144       0.101200
     13 H22         -0.8480    -0.9870     1.3940 hx         1 144       0.101200
     14 HO2          0.1680    -2.8520     0.4660 ho         1 144       0.485667
     15 H31         -1.2200     1.2640    -1.4950 hx         1 144       0.101200
     16 H32         -1.2240    -0.5030    -1.5180 hx         1 144       0.101200
     17 HO3         -3.1750     0.3710    -0.5610 ho         1 144       0.485667
     18 H41          1.1830    -0.3790    -1.6660 hx         1 144       0.101200
     19 H42          1.1100     1.3780    -1.5450 hx         1 144       0.101200
     20 HO4          2.6300    -0.4710     0.0030 ho         1 144       0.485667
@<TRIPOS>BOND
     1     1     2 1   
     2     1     9 1   
     3     1    10 1   
     4     1    11 1   
     5     2     3 1   
     6     2     5 1   
     7     2     7 1   
     8     3     4 1   
     9     3    12 1   
    10     3    13 1   
    11     4    14 1   
    12     5     6 1   
    13     5    15 1   
    14     5    16 1   
    15     6    17 1   
    16     7     8 1   
    17     7    18 1   
    18     7    19 1   
    19     8    20 1   
@<TRIPOS>SUBSTRUCTURE
     1 144         1 TEMP              0 ****  ****    0 ROOT
