@<TRIPOS>MOLECULE
144
   20    19     1     0     0
SMALL
abcg2


@<TRIPOS>ATOM
      1 C1           0.0300     1.5490     0.9270 c3         1 144       0.085900
      2 N            0.0240     0.3790     0.0080 n4         1 144      -0.645000
      3 C2           0.0770    -0.8800     0.8510 c3         1 144       0.343267
      4 O2           0.1610    -2.0010     0.0690 oh         1 144      -0.611333
      5 C3          -1.2130     0.4170    -0.8750 c3         1 144       0.343267
      6 O3          -2.3600     0.3540    -0.1310 oh         1 144      -0.611333
      7 C4           1.2300     0.4410    -0.9300 c3         1 144       0.343267
      8 O4           2.4100     0.4830    -0.2420 oh         1 144      -0.611333
      9 H11          0.9210     1.5200     1.5460 hx         1 144       0.099700
     10 H12          0.0170     2.4600     0.3350 hx         1 144       0.099700
     11 H13         -0.8500     1.5100     1.5620 hx         1 144       0.099700
     12 H21          0.9760    -0.7890     1.4580 hx         1 144       0.101200
     13 H22         -0.7830    -0.8520     1.5220 hx         1 144       0.101200
     14 HO2         -0.6970    -2.4290    -0.0170 ho         1 144       0.485667
     15 H31         -1.1610     1.3750    -1.3920 hx         1 144       0.101200
     16 H32         -1.1110    -0.3900    -1.6030 hx         1 144       0.101200
     17 HO3         -2.7070    -0.5440    -0.1210 ho         1 144       0.485667
     18 H41          1.1400    -0.4100    -1.6050 hx         1 144       0.101200
     19 H42          1.1080     1.3660    -1.4940 hx         1 144       0.101200
     20 HO4          2.7800    -0.4020    -0.1470 ho         1 144       0.485667
@<TRIPOS>BOND
     1     1     2 1   
     2     1     9 1   
     3     1    10 1   
     4     1    11 1   
     5     2     3 1   
     6     2     5 1   
     7     2     7 1   
     8     3     4 1   
     9     3    12 1   
    10     3    13 1   
    11     4    14 1   
    12     5     6 1   
    13     5    15 1   
    14     5    16 1   
    15     6    17 1   
    16     7     8 1   
    17     7    18 1   
    18     7    19 1   
    19     8    20 1   
@<TRIPOS>SUBSTRUCTURE
     1 144         1 TEMP              0 ****  ****    0 ROOT
