@<TRIPOS>MOLECULE
145
   36    37     1     0     0
SMALL
bcc


@<TRIPOS>ATOM
      1 C1          -0.6640    -0.1290    -0.2660 c6         1 145       0.321900
      2 C2          -1.4550    -1.4260    -0.1170 c6         1 145       0.088100
      3 O2          -0.9010    -2.4610    -0.8890 oh         1 145      -0.603800
      4 C3          -2.8790    -1.1800    -0.6070 c6         1 145       0.117100
      5 O3          -3.7110    -2.2880    -0.3780 oh         1 145      -0.601800
      6 C4          -3.4930     0.0230     0.1090 c6         1 145       0.125100
      7 O4          -3.6930    -0.2280     1.4770 oh         1 145      -0.584800
      8 C5          -2.5540     1.2140    -0.0390 c6         1 145       0.156100
      9 C6          -3.0440     2.4530     0.6770 c3         1 145       0.148400
     10 O6          -2.2220     3.5310     0.2980 oh         1 145      -0.600800
     11 O5          -1.2660     0.8940     0.4590 os         1 145      -0.401600
     12 O1           0.6090    -0.3500     0.2710 os         1 145      -0.291900
     13 C7           1.6330     0.4290    -0.1130 ca         1 145       0.207100
     14 C8           2.9330    -0.0950    -0.0510 ca         1 145      -0.212200
     15 C9           4.0330     0.6450    -0.4660 ca         1 145      -0.043000
     16 C10          3.8590     1.9310    -0.9380 ca         1 145      -0.167000
     17 C11          2.5770     2.4600    -1.0060 ca         1 145      -0.057000
     18 C12          1.4760     1.7250    -0.6020 ca         1 145      -0.205000
     19 N1           3.1740    -1.4390     0.4340 no         1 145       0.320200
     20 O7           4.0800    -2.0590    -0.0760 o          1 145      -0.207000
     21 O8           2.4800    -1.8660     1.3240 o          1 145      -0.207000
     22 H1          -0.5800     0.1420    -1.3340 h2         1 145       0.043700
     23 H2          -1.4860    -1.6890     0.9490 h1         1 145       0.086700
     24 HO2         -0.1460    -2.8280    -0.4180 ho         1 145       0.434000
     25 H3          -2.8360    -0.9380    -1.6810 h1         1 145       0.046700
     26 HO3         -3.3060    -3.0660    -0.7760 ho         1 145       0.434000
     27 H4          -4.4380     0.2770    -0.3940 h1         1 145       0.052700
     28 HO4         -4.2180    -1.0310     1.5590 ho         1 145       0.426000
     29 H5          -2.4900     1.4440    -1.1140 h1         1 145       0.049700
     30 H61         -3.0280     2.2890     1.7600 h1         1 145       0.044200
     31 H62         -4.0910     2.6150     0.3880 h1         1 145       0.044200
     32 HO6         -2.4520     4.2880     0.8440 ho         1 145       0.412000
     33 H7           5.0230     0.2170    -0.4070 ha         1 145       0.165000
     34 H8           4.7150     2.5130    -1.2460 ha         1 145       0.148000
     35 H9           2.4250     3.4660    -1.3740 ha         1 145       0.142000
     36 H6           0.4960     2.1790    -0.6450 ha         1 145       0.170000
@<TRIPOS>BOND
     1     1     2 1   
     2     1    11 1   
     3     1    12 1   
     4     1    22 1   
     5     2     3 1   
     6     2     4 1   
     7     2    23 1   
     8     3    24 1   
     9     4     5 1   
    10     4     6 1   
    11     4    25 1   
    12     5    26 1   
    13     6     7 1   
    14     6     8 1   
    15     6    27 1   
    16     7    28 1   
    17     8     9 1   
    18     8    11 1   
    19     8    29 1   
    20     9    10 1   
    21     9    30 1   
    22     9    31 1   
    23    10    32 1   
    24    12    13 1   
    25    13    14 ar  
    26    13    18 ar  
    27    14    15 ar  
    28    14    19 1   
    29    15    16 ar  
    30    15    33 1   
    31    16    17 ar  
    32    16    34 1   
    33    17    18 ar  
    34    17    35 1   
    35    18    36 1   
    36    19    20 1   
    37    19    21 1   
@<TRIPOS>SUBSTRUCTURE
     1 145         1 TEMP              0 ****  ****    0 ROOT
