@<TRIPOS>MOLECULE
145
   36    37     1     0     0
SMALL
No Charge or Current Charge


@<TRIPOS>ATOM
      1 C1          -0.7030    -0.2760    -0.5050 c6         1 145       0.368300
      2 C2          -1.6040    -1.5370    -0.2920 c6         1 145       0.111300
      3 O2          -1.1800    -2.6760    -1.0870 oh         1 145      -0.726000
      4 C3          -3.0850    -1.1720    -0.6200 c6         1 145       0.140300
      5 O3          -3.9350    -2.3030    -0.3580 oh         1 145      -0.664000
      6 C4          -3.5530     0.0680     0.2040 c6         1 145       0.148300
      7 O4          -3.6870    -0.3130     1.5890 oh         1 145      -0.707000
      8 C5          -2.5250     1.2320    -0.0060 c6         1 145       0.179300
      9 C6          -2.8720     2.5050     0.8340 c3         1 145       0.171600
     10 O6          -1.9690     3.6070     0.5970 oh         1 145      -0.723000
     11 O5          -1.1810     0.7980     0.3320 os         1 145      -0.448000
     12 O1           0.6620    -0.5850    -0.1650 os         1 145      -0.315100
     13 C7           1.6920     0.3150    -0.3770 ca         1 145       0.207100
     14 C8           2.9930    -0.0260     0.0590 ca         1 145      -0.212200
     15 C9           4.0730     0.8480    -0.1940 ca         1 145      -0.025000
     16 C10          3.8580     2.0610    -0.8670 ca         1 145      -0.149000
     17 C11          2.5690     2.4090    -1.2950 ca         1 145      -0.039000
     18 C12          1.4920     1.5400    -1.0570 ca         1 145      -0.187000
     19 N1           3.2470    -1.3020     0.7780 no         1 145       0.700200
     20 O7           4.3120    -1.8870     0.5410 o          1 145      -0.397000
     21 O8           2.4850    -1.6170     1.7010 o          1 145      -0.397000
     22 H1          -0.7540     0.0220    -1.5620 h2         1 145       0.043700
     23 H2          -1.5450    -1.7910     0.7780 h1         1 145       0.086700
     24 HO2         -0.2270    -2.8350    -0.8760 ho         1 145       0.533000
     25 H3          -3.1410    -0.9090    -1.6880 h1         1 145       0.046700
     26 HO3         -3.4440    -3.0760    -0.7240 ho         1 145       0.473000
     27 H4          -4.5290     0.3940    -0.1880 h1         1 145       0.052700
     28 HO4         -4.0670    -1.2240     1.5540 ho         1 145       0.525000
     29 H5          -2.5400     1.5250    -1.0670 h1         1 145       0.049700
     30 H61         -2.8590     2.2300     1.8970 h1         1 145       0.044200
     31 H62         -3.9010     2.8040     0.5880 h1         1 145       0.044200
     32 HO6         -2.2110     4.3200     1.2350 ho         1 145       0.511000
     33 H7           5.0800     0.5950     0.1360 ha         1 145       0.147000
     34 H8           4.6930     2.7340    -1.0550 ha         1 145       0.130000
     35 H9           2.4050     3.3500    -1.8170 ha         1 145       0.124000
     36 H6           0.5100     1.8380    -1.4100 ha         1 145       0.152000
@<TRIPOS>BOND
     1     1     2 1   
     2     1    11 1   
     3     1    12 1   
     4     1    22 1   
     5     2     3 1   
     6     2     4 1   
     7     2    23 1   
     8     3    24 1   
     9     4     5 1   
    10     4     6 1   
    11     4    25 1   
    12     5    26 1   
    13     6     7 1   
    14     6     8 1   
    15     6    27 1   
    16     7    28 1   
    17     8     9 1   
    18     8    11 1   
    19     8    29 1   
    20     9    10 1   
    21     9    30 1   
    22     9    31 1   
    23    10    32 1   
    24    12    13 1   
    25    13    14 ar  
    26    13    18 ar  
    27    14    15 ar  
    28    14    19 1   
    29    15    16 ar  
    30    15    33 1   
    31    16    17 ar  
    32    16    34 1   
    33    17    18 ar  
    34    17    35 1   
    35    18    36 1   
    36    19    20 1   
    37    19    21 1   
@<TRIPOS>SUBSTRUCTURE
     1 145         1 TEMP              0 ****  ****    0 ROOT
