@<TRIPOS>MOLECULE
146
  106   114     1     0     0
SMALL
abcg2


@<TRIPOS>ATOM
      1 C1          -8.6990    14.9170    27.7910 c          1 146       0.603000
      2 C2          -8.7270    14.6830    30.1850 c3         1 146       0.143800
      3 C3         -10.4440    16.1400    29.1000 c3         1 146       0.105700
      4 C4         -10.3130    17.6070    28.6940 c3         1 146       0.151300
      5 C5         -10.0880    17.8100    27.2100 c3         1 146       0.151300
      6 C6          -8.8100    17.1520    26.6790 c3         1 146       0.105700
      7 C7          -8.6120    15.0170    25.3880 c3         1 146       0.143800
      8 C20         -8.7170    15.5560    31.4120 ca         1 146      -0.108800
      9 C21         -9.5600    15.2650    32.4770 ca         1 146      -0.078500
     10 C22         -9.5810    16.0690    33.6190 ca         1 146      -0.157600
     11 C23         -8.7460    17.1850    33.6840 ca         1 146      -0.047000
     12 C24         -7.8920    17.4750    32.6280 ca         1 146      -0.121000
     13 C25         -7.8760    16.6650    31.4990 ca         1 146      -0.068000
     14 C26        -10.4860    15.8070    34.7730 c          1 146       0.630700
     15 C27        -11.8870    14.0800    35.8060 cc         1 146       0.488900
     16 C9         -14.0020    14.3030    38.6790 ca         1 146      -0.111000
     17 C11        -14.7480    13.2380    39.1720 ca         1 146      -0.100500
     18 C13        -14.7190    11.9770    38.5550 ca         1 146      -0.129500
     19 C14        -13.9440    11.7390    37.4260 ca         1 146      -0.056500
     20 C28        -13.1890    12.7950    36.9180 ca         1 146       0.086900
     21 C29        -13.2310    14.0580    37.5510 ca         1 146      -0.073200
     22 C31        -11.6230    15.3940    28.4480 c3         1 146      -0.048600
     23 C32        -11.8740    14.0760    29.1320 ca         1 146      -0.090300
     24 C33        -11.4920    12.8740    28.5370 ca         1 146      -0.106750
     25 C34        -11.6460    11.6650    29.2090 ca         1 146      -0.111750
     26 C35        -12.1930    11.6400    30.4880 ca         1 146      -0.111500
     27 C36        -12.5900    12.8330    31.0870 ca         1 146      -0.111750
     28 C37        -12.4330    14.0380    30.4120 ca         1 146      -0.106750
     29 C61         -7.5100    17.6710    27.3170 c3         1 146      -0.048600
     30 C62         -6.3030    17.2400    26.5280 ca         1 146      -0.090300
     31 C63         -6.0040    17.8470    25.3050 ca         1 146      -0.106750
     32 C64         -4.9340    17.4090    24.5340 ca         1 146      -0.111750
     33 C65         -4.1440    16.3500    24.9740 ca         1 146      -0.111500
     34 C66         -4.4260    15.7450    26.1940 ca         1 146      -0.111750
     35 C67         -5.4950    16.1910    26.9650 ca         1 146      -0.106750
     36 C70         -9.3800    15.6240    24.2440 ca         1 146      -0.108800
     37 C71         -8.6980    16.2300    23.1940 ca         1 146      -0.078500
     38 C72         -9.3900    16.8330    22.1420 ca         1 146      -0.157600
     39 C73        -10.7850    16.8350    22.1510 ca         1 146      -0.047000
     40 C74        -11.4720    16.2130    23.1850 ca         1 146      -0.121000
     41 C75        -10.7740    15.6080    24.2240 ca         1 146      -0.068000
     42 C76         -8.6870    17.5340    21.0250 c          1 146       0.630700
     43 C77         -6.5060    17.4940    19.8410 cc         1 146       0.488900
     44 C15         -4.8640    19.5460    17.5110 ca         1 146      -0.056500
     45 C8          -3.6060    19.3220    16.9620 ca         1 146      -0.129500
     46 C10         -2.8460    18.1940    17.3090 ca         1 146      -0.100500
     47 C12         -3.3180    17.2520    18.2170 ca         1 146      -0.111000
     48 C78         -4.5750    17.4840    18.7600 ca         1 146      -0.073200
     49 C79         -5.3530    18.6130    18.4230 ca         1 146       0.086900
     50 N2          -9.1660    15.4150    28.9880 n          1 146      -0.412800
     51 N7          -8.9120    15.6820    26.6650 n          1 146      -0.412800
     52 N26        -11.0020    14.5400    34.8560 ns         1 146      -0.414900
     53 N3         -12.3810    14.8590    36.8080 na         1 146      -0.342100
     54 N27        -12.3350    12.8440    35.8230 nd         1 146      -0.603100
     55 N76         -7.4430    17.0160    20.7330 ns         1 146      -0.414900
     56 N1          -6.5580    18.5880    19.1190 nd         1 146      -0.603100
     57 N77         -5.3450    16.7850    19.6700 na         1 146      -0.342100
     58 O1          -8.1170    13.8300    27.7290 o          1 146      -0.596000
     59 O4         -11.5070    18.2680    29.1080 oh         1 146      -0.668500
     60 O5         -10.0490    19.2260    27.0060 oh         1 146      -0.668500
     61 O26        -10.7560    16.6710    35.6030 o          1 146      -0.557600
     62 O76         -9.1840    18.4760    20.4310 o          1 146      -0.557600
     63 H21A        -7.7240    14.3160    29.9840 h1         1 146       0.068200
     64 H22         -9.3610    13.8110    30.3600 h1         1 146       0.068200
     65 H3         -10.6550    16.1800    30.1670 h1         1 146       0.070200
     66 H4          -9.4600    18.0210    29.2420 h1         1 146       0.056700
     67 H5         -10.9330    17.3880    26.6610 h1         1 146       0.056700
     68 H6          -8.7750    17.4390    25.6290 h1         1 146       0.070200
     69 H71A        -8.8830    13.9700    25.5050 h1         1 146       0.068200
     70 H72         -7.5420    15.0530    25.1700 h1         1 146       0.068200
     71 H21        -10.2270    14.4190    32.3770 ha         1 146       0.120000
     72 H23         -8.7680    17.8120    34.5640 ha         1 146       0.140000
     73 H24         -7.2370    18.3340    32.6860 ha         1 146       0.125500
     74 H25         -7.2110    16.8960    30.6760 ha         1 146       0.123500
     75 H9         -14.0250    15.2770    39.1510 ha         1 146       0.117500
     76 H11        -15.3630    13.3830    40.0510 ha         1 146       0.113000
     77 H13        -15.3150    11.1730    38.9690 ha         1 146       0.114000
     78 H14        -13.9230    10.7650    36.9530 ha         1 146       0.129500
     79 H311       -12.5000    16.0370    28.5290 hc         1 146       0.066200
     80 H312       -11.4300    15.2330    27.3890 hc         1 146       0.066200
     81 H33        -11.0560    12.8890    27.5460 ha         1 146       0.115250
     82 H34        -11.3380    10.7420    28.7320 ha         1 146       0.117500
     83 H35        -12.3100    10.7000    31.0120 ha         1 146       0.115000
     84 H36        -13.0170    12.8250    32.0830 ha         1 146       0.117500
     85 H37        -12.7350    14.9630    30.8890 ha         1 146       0.115250
     86 H611        -7.5750    18.7600    27.3400 hc         1 146       0.066200
     87 H612        -7.4260    17.3240    28.3450 hc         1 146       0.066200
     88 H63         -6.6220    18.6640    24.9520 ha         1 146       0.115250
     89 H64         -4.7170    17.8920    23.5890 ha         1 146       0.117500
     90 H65         -3.3130    16.0040    24.3720 ha         1 146       0.115000
     91 H66         -3.8140    14.9230    26.5460 ha         1 146       0.117500
     92 H67         -5.7150    15.7120    27.9120 ha         1 146       0.115250
     93 H71         -7.6160    16.2670    23.2360 ha         1 146       0.120000
     94 H73        -11.3200    17.3170    21.3440 ha         1 146       0.140000
     95 H74        -12.5540    16.1990    23.1810 ha         1 146       0.125500
     96 H75        -11.3150    15.1330    25.0330 ha         1 146       0.123500
     97 H15         -5.4480    20.4170    17.2430 ha         1 146       0.129500
     98 H8          -3.2020    20.0310    16.2510 ha         1 146       0.114000
     99 H10         -1.8710    18.0550    16.8600 ha         1 146       0.113000
    100 H12         -2.7330    16.3830    18.4860 ha         1 146       0.117500
    101 HN6        -10.7060    13.8380    34.1950 hn         1 146       0.337000
    102 HN3        -12.1310    15.8280    36.9390 hn         1 146       0.371000
    103 HN7         -7.2010    16.1490    21.1880 hn         1 146       0.337000
    104 HN77        -5.1000    15.9210    20.1290 hn         1 146       0.371000
    105 HO4        -11.5110    19.1290    28.6660 ho         1 146       0.461000
    106 HO5        -10.1970    19.4090    26.0700 ho         1 146       0.461000
@<TRIPOS>BOND
     1     1    50 1   
     2     1    51 1   
     3     1    58 2   
     4     2     8 1   
     5     2    50 1   
     6     2    63 1   
     7     2    64 1   
     8     3     4 1   
     9     3    22 1   
    10     3    50 1   
    11     3    65 1   
    12     4     5 1   
    13     4    59 1   
    14     4    66 1   
    15     5     6 1   
    16     5    60 1   
    17     5    67 1   
    18     6    29 1   
    19     6    51 1   
    20     6    68 1   
    21     7    36 1   
    22     7    51 1   
    23     7    69 1   
    24     7    70 1   
    25     8     9 ar  
    26     8    13 ar  
    27     9    10 ar  
    28     9    71 1   
    29    10    11 ar  
    30    10    14 1   
    31    11    12 ar  
    32    11    72 1   
    33    12    13 ar  
    34    12    73 1   
    35    13    74 1   
    36    14    52 1   
    37    14    61 2   
    38    15    52 1   
    39    15    53 1   
    40    15    54 2   
    41    16    17 ar  
    42    16    21 ar  
    43    16    75 1   
    44    17    18 ar  
    45    17    76 1   
    46    18    19 ar  
    47    18    77 1   
    48    19    20 ar  
    49    19    78 1   
    50    20    21 ar  
    51    20    54 1   
    52    21    53 1   
    53    22    23 1   
    54    22    79 1   
    55    22    80 1   
    56    23    24 ar  
    57    23    28 ar  
    58    24    25 ar  
    59    24    81 1   
    60    25    26 ar  
    61    25    82 1   
    62    26    27 ar  
    63    26    83 1   
    64    27    28 ar  
    65    27    84 1   
    66    28    85 1   
    67    29    30 1   
    68    29    86 1   
    69    29    87 1   
    70    30    31 ar  
    71    30    35 ar  
    72    31    32 ar  
    73    31    88 1   
    74    32    33 ar  
    75    32    89 1   
    76    33    34 ar  
    77    33    90 1   
    78    34    35 ar  
    79    34    91 1   
    80    35    92 1   
    81    36    37 ar  
    82    36    41 ar  
    83    37    38 ar  
    84    37    93 1   
    85    38    39 ar  
    86    38    42 1   
    87    39    40 ar  
    88    39    94 1   
    89    40    41 ar  
    90    40    95 1   
    91    41    96 1   
    92    42    55 1   
    93    42    62 2   
    94    43    55 1   
    95    43    56 2   
    96    43    57 1   
    97    44    45 ar  
    98    44    49 ar  
    99    44    97 1   
   100    45    46 ar  
   101    45    98 1   
   102    46    47 ar  
   103    46    99 1   
   104    47    48 ar  
   105    47   100 1   
   106    48    49 ar  
   107    48    57 1   
   108    49    56 1   
   109    52   101 1   
   110    53   102 1   
   111    55   103 1   
   112    57   104 1   
   113    59   105 1   
   114    60   106 1   
@<TRIPOS>SUBSTRUCTURE
     1 146         1 TEMP              0 ****  ****    0 ROOT
