@<TRIPOS>MOLECULE
146
  106   114     1     0     0
SMALL
No Charge or Current Charge


@<TRIPOS>ATOM
      1 C1          -8.8180    14.7290    27.7180 c          1 146       0.603000
      2 C2          -8.5890    14.6050    30.1910 c3         1 146       0.143800
      3 C3         -10.4360    16.0240    29.1720 c3         1 146       0.105700
      4 C4         -10.3480    17.4970    28.6980 c3         1 146       0.151300
      5 C5         -10.3040    17.6370    27.1590 c3         1 146       0.151300
      6 C6          -9.0570    16.9570    26.5330 c3         1 146       0.105700
      7 C7          -8.9790    14.7500    25.2410 c3         1 146       0.143800
      8 C20         -8.5110    15.4990    31.4230 ca         1 146      -0.108800
      9 C21         -9.3250    15.2300    32.5410 ca         1 146      -0.078500
     10 C22         -9.2880    16.0680    33.6840 ca         1 146      -0.157600
     11 C23         -8.4090    17.1760    33.6780 ca         1 146      -0.047000
     12 C24         -7.5950    17.4400    32.5640 ca         1 146      -0.121000
     13 C25         -7.6450    16.6050    31.4380 ca         1 146      -0.068000
     14 C26        -10.1590    15.8200    34.9000 c          1 146       0.630700
     15 C27        -11.8770    14.2960    35.7890 cc         1 146       0.488900
     16 C9         -13.7070    14.2890    38.8730 ca         1 146      -0.111000
     17 C11        -14.6770    13.3320    39.2380 ca         1 146      -0.100500
     18 C13        -14.9950    12.2670    38.3590 ca         1 146      -0.129500
     19 C14        -14.3460    12.1520    37.1090 ca         1 146      -0.056500
     20 C28        -13.3850    13.1150    36.7680 ca         1 146       0.086900
     21 C29        -13.0900    14.1350    37.6260 ca         1 146      -0.073200
     22 C31        -11.6980    15.2380    28.7130 c3         1 146      -0.048600
     23 C32        -11.8930    13.9550    29.5130 ca         1 146      -0.090300
     24 C33        -11.5200    12.7100    28.9720 ca         1 146      -0.106750
     25 C34        -11.6760    11.5340    29.7270 ca         1 146      -0.111750
     26 C35        -12.2090    11.5970    31.0260 ca         1 146      -0.111500
     27 C36        -12.5870    12.8370    31.5700 ca         1 146      -0.111750
     28 C37        -12.4280    14.0120    30.8150 ca         1 146      -0.106750
     29 C61         -7.6790    17.5170    26.9870 c3         1 146      -0.048600
     30 C62         -6.5680    17.1670    26.0030 ca         1 146      -0.090300
     31 C63         -6.3620    17.9650    24.8610 ca         1 146      -0.106750
     32 C64         -5.3460    17.6450    23.9440 ca         1 146      -0.111750
     33 C65         -4.5340    16.5190    24.1610 ca         1 146      -0.111500
     34 C66         -4.7380    15.7160    25.2970 ca         1 146      -0.111750
     35 C67         -5.7500    16.0410    26.2170 ca         1 146      -0.106750
     36 C70         -9.6390    15.4220    24.0440 ca         1 146      -0.108800
     37 C71         -8.8400    15.9960    23.0360 ca         1 146      -0.078500
     38 C72         -9.4290    16.6640    21.9340 ca         1 146      -0.157600
     39 C73        -10.8400    16.7430    21.8730 ca         1 146      -0.047000
     40 C74        -11.6360    16.1650    22.8760 ca         1 146      -0.121000
     41 C75        -11.0390    15.5050    23.9600 ca         1 146      -0.068000
     42 C76         -8.5990    17.3060    20.8370 c          1 146       0.630700
     43 C77         -6.2410    17.5480    20.0960 cc         1 146       0.488900
     44 C15         -4.6390    19.5320    17.6510 ca         1 146      -0.056500
     45 C8          -3.2620    19.5440    17.3310 ca         1 146      -0.129500
     46 C10         -2.3580    18.6970    18.0180 ca         1 146      -0.100500
     47 C12         -2.8250    17.8330    19.0310 ca         1 146      -0.111000
     48 C78         -4.1960    17.8550    19.3140 ca         1 146      -0.073200
     49 C79         -5.0780    18.6640    18.6610 ca         1 146       0.086900
     50 N2          -9.1710    15.2490    28.9840 n          1 146      -0.412800
     51 N7          -9.1120    15.4600    26.5430 n          1 146      -0.412800
     52 N26        -10.9860    14.7240    34.8470 ns         1 146      -0.414900
     53 N3         -12.1360    14.8880    37.0170 na         1 146      -0.342100
     54 N27        -12.6280    13.2010    35.6020 nd         1 146      -0.603100
     55 N76         -7.2470    17.0420    20.8790 ns         1 146      -0.414900
     56 N1          -6.3730    18.4860    19.1410 nd         1 146      -0.603100
     57 N77         -4.9170    17.1440    20.2220 na         1 146      -0.342100
     58 O1          -8.2570    13.6450    27.6380 o          1 146      -0.596000
     59 O4         -11.4630    18.2590    29.1920 oh         1 146      -0.668500
     60 O5         -10.3480    19.0410    26.8160 oh         1 146      -0.668500
     61 O26        -10.1290    16.5610    35.8740 o          1 146      -0.557600
     62 O76         -9.1160    18.0170    19.9860 o          1 146      -0.557600
     63 H21A        -7.5690    14.2710    29.9610 h1         1 146       0.068200
     64 H22         -9.1750    13.7060    30.4210 h1         1 146       0.068200
     65 H3         -10.5850    16.1280    30.2530 h1         1 146       0.070200
     66 H4          -9.4220    17.9200    29.1090 h1         1 146       0.056700
     67 H5         -11.1910    17.1420    26.7420 h1         1 146       0.056700
     68 H6          -9.1140    17.2730    25.4860 h1         1 146       0.070200
     69 H71A        -9.4190    13.7490    25.3450 h1         1 146       0.068200
     70 H72         -7.9100    14.6050    25.0360 h1         1 146       0.068200
     71 H21         -9.9870    14.3700    32.4960 ha         1 146       0.120000
     72 H23         -8.3540    17.8400    34.5380 ha         1 146       0.140000
     73 H24         -6.9250    18.2970    32.5730 ha         1 146       0.125500
     74 H25         -7.0170    16.8200    30.5760 ha         1 146       0.123500
     75 H9         -13.4500    15.1130    39.5350 ha         1 146       0.117500
     76 H11        -15.1820    13.4120    40.1990 ha         1 146       0.113000
     77 H13        -15.7440    11.5330    38.6480 ha         1 146       0.114000
     78 H14        -14.5830    11.3390    36.4270 ha         1 146       0.129500
     79 H311       -12.5850    15.8710    28.8350 hc         1 146       0.066200
     80 H312       -11.6360    15.0150    27.6420 hc         1 146       0.066200
     81 H33        -11.0990    12.6520    27.9710 ha         1 146       0.115250
     82 H34        -11.3830    10.5750    29.3060 ha         1 146       0.117500
     83 H35        -12.3300    10.6870    31.6100 ha         1 146       0.115000
     84 H36        -13.0030    12.8860    32.5740 ha         1 146       0.117500
     85 H37        -12.7190    14.9690    31.2450 ha         1 146       0.115250
     86 H611        -7.7420    18.6080    27.0770 hc         1 146       0.066200
     87 H612        -7.4330    17.1520    27.9900 hc         1 146       0.066200
     88 H63         -6.9880    18.8370    24.6840 ha         1 146       0.115250
     89 H64         -5.1850    18.2740    23.0710 ha         1 146       0.117500
     90 H65         -3.7440    16.2710    23.4560 ha         1 146       0.115000
     91 H66         -4.1100    14.8440    25.4660 ha         1 146       0.117500
     92 H67         -5.9010    15.4130    27.0920 ha         1 146       0.115250
     93 H71         -7.7610    15.9310    23.1430 ha         1 146       0.120000
     94 H73        -11.3280    17.2510    21.0430 ha         1 146       0.140000
     95 H74        -12.7200    16.2320    22.8140 ha         1 146       0.125500
     96 H75        -11.6600    15.0680    24.7390 ha         1 146       0.123500
     97 H15         -5.3410    20.1780    17.1300 ha         1 146       0.129500
     98 H8          -2.8950    20.2080    16.5510 ha         1 146       0.114000
     99 H10         -1.3000    18.7130    17.7650 ha         1 146       0.113000
    100 H12         -2.1450    17.1760    19.5690 ha         1 146       0.117500
    101 HN6        -10.9270    14.1740    34.0080 hn         1 146       0.337000
    102 HN3        -11.6850    15.7240    37.3670 hn         1 146       0.371000
    103 HN7         -6.9740    16.3890    21.5930 hn         1 146       0.337000
    104 HN77        -4.5670    16.4420    20.8590 hn         1 146       0.371000
    105 HO4        -11.4950    19.0470    28.6010 ho         1 146       0.461000
    106 HO5        -10.5080    19.1060    25.8480 ho         1 146       0.461000
@<TRIPOS>BOND
     1     1    50 1   
     2     1    51 1   
     3     1    58 2   
     4     2     8 1   
     5     2    50 1   
     6     2    63 1   
     7     2    64 1   
     8     3     4 1   
     9     3    22 1   
    10     3    50 1   
    11     3    65 1   
    12     4     5 1   
    13     4    59 1   
    14     4    66 1   
    15     5     6 1   
    16     5    60 1   
    17     5    67 1   
    18     6    29 1   
    19     6    51 1   
    20     6    68 1   
    21     7    36 1   
    22     7    51 1   
    23     7    69 1   
    24     7    70 1   
    25     8     9 ar  
    26     8    13 ar  
    27     9    10 ar  
    28     9    71 1   
    29    10    11 ar  
    30    10    14 1   
    31    11    12 ar  
    32    11    72 1   
    33    12    13 ar  
    34    12    73 1   
    35    13    74 1   
    36    14    52 1   
    37    14    61 2   
    38    15    52 1   
    39    15    53 1   
    40    15    54 2   
    41    16    17 ar  
    42    16    21 ar  
    43    16    75 1   
    44    17    18 ar  
    45    17    76 1   
    46    18    19 ar  
    47    18    77 1   
    48    19    20 ar  
    49    19    78 1   
    50    20    21 ar  
    51    20    54 1   
    52    21    53 1   
    53    22    23 1   
    54    22    79 1   
    55    22    80 1   
    56    23    24 ar  
    57    23    28 ar  
    58    24    25 ar  
    59    24    81 1   
    60    25    26 ar  
    61    25    82 1   
    62    26    27 ar  
    63    26    83 1   
    64    27    28 ar  
    65    27    84 1   
    66    28    85 1   
    67    29    30 1   
    68    29    86 1   
    69    29    87 1   
    70    30    31 ar  
    71    30    35 ar  
    72    31    32 ar  
    73    31    88 1   
    74    32    33 ar  
    75    32    89 1   
    76    33    34 ar  
    77    33    90 1   
    78    34    35 ar  
    79    34    91 1   
    80    35    92 1   
    81    36    37 ar  
    82    36    41 ar  
    83    37    38 ar  
    84    37    93 1   
    85    38    39 ar  
    86    38    42 1   
    87    39    40 ar  
    88    39    94 1   
    89    40    41 ar  
    90    40    95 1   
    91    41    96 1   
    92    42    55 1   
    93    42    62 2   
    94    43    55 1   
    95    43    56 2   
    96    43    57 1   
    97    44    45 ar  
    98    44    49 ar  
    99    44    97 1   
   100    45    46 ar  
   101    45    98 1   
   102    46    47 ar  
   103    46    99 1   
   104    47    48 ar  
   105    47   100 1   
   106    48    49 ar  
   107    48    57 1   
   108    49    56 1   
   109    52   101 1   
   110    53   102 1   
   111    55   103 1   
   112    57   104 1   
   113    59   105 1   
   114    60   106 1   
@<TRIPOS>SUBSTRUCTURE
     1 146         1 TEMP              0 ****  ****    0 ROOT
