@<TRIPOS>MOLECULE
147
   36    37     1     0     0
SMALL
No Charge or Current Charge


@<TRIPOS>ATOM
      1 C1          -1.2180    -0.5890    -0.2640 c6         1 147       0.368300
      2 C2          -2.5910    -1.3140    -0.0740 c6         1 147       0.108300
      3 O2          -2.6070    -2.6480    -0.6470 oh         1 147      -0.723000
      4 C3          -3.7240    -0.4420    -0.6960 c6         1 147       0.140300
      5 O3          -5.0010    -1.0630    -0.4600 oh         1 147      -0.664000
      6 C4          -3.7030     1.0050    -0.1130 c6         1 147       0.147300
      7 O4          -4.1420     0.9630     1.2610 oh         1 147      -0.707000
      8 C5          -2.2590     1.5930    -0.2670 c6         1 147       0.178300
      9 C6          -2.1170     3.0230     0.3500 c3         1 147       0.172600
     10 O6          -0.8070     3.6000     0.1550 oh         1 147      -0.720000
     11 O5          -1.2780     0.7160     0.3490 os         1 147      -0.447000
     12 O1          -0.1640    -1.3610     0.3430 os         1 147      -0.336100
     13 C7           1.1650    -1.0200     0.1840 ca         1 147       0.193100
     14 C8           2.1160    -1.7990     0.8580 ca         1 147      -0.176500
     15 C9           3.4890    -1.5220     0.7400 ca         1 147      -0.010000
     16 C10          3.9290    -0.4480    -0.0680 ca         1 147      -0.220200
     17 C11          2.9710     0.3370    -0.7500 ca         1 147      -0.010000
     18 C12          1.5990     0.0510    -0.6270 ca         1 147      -0.176500
     19 N1           5.3900    -0.1460    -0.1980 no         1 147       0.701200
     20 O7           6.1920    -0.8600     0.4180 o          1 147      -0.405500
     21 O8           5.7290     0.8020    -0.9170 o          1 147      -0.405500
     22 H1          -1.0160    -0.4870    -1.3410 h2         1 147       0.046700
     23 H2          -2.7670    -1.3790     1.0110 h1         1 147       0.079700
     24 HO2         -1.8260    -3.1280    -0.2770 ho         1 147       0.525000
     25 H3          -3.5430    -0.3730    -1.7800 h1         1 147       0.050700
     26 HO3         -4.8510    -2.0210    -0.6400 ho         1 147       0.472000
     27 H4          -4.3930     1.6250    -0.7050 h1         1 147       0.054700
     28 HO4         -4.8660     0.2900     1.2640 ho         1 147       0.525000
     29 H5          -2.0270     1.6740    -1.3390 h1         1 147       0.050700
     30 H61         -2.3440     2.9590     1.4230 h1         1 147       0.043200
     31 H62         -2.8820     3.6670    -0.1060 h1         1 147       0.043200
     32 HO6         -0.7900     4.4500     0.6540 ho         1 147       0.511000
     33 H7           1.7850    -2.6270     1.4800 ha         1 147       0.143000
     34 H8           4.2010    -2.1470     1.2780 ha         1 147       0.151500
     35 H9           3.2790     1.1710    -1.3790 ha         1 147       0.151500
     36 H6           0.8930     0.6770    -1.1640 ha         1 147       0.143000
@<TRIPOS>BOND
     1     1     2 1   
     2     1    11 1   
     3     1    12 1   
     4     1    22 1   
     5     2     3 1   
     6     2     4 1   
     7     2    23 1   
     8     3    24 1   
     9     4     5 1   
    10     4     6 1   
    11     4    25 1   
    12     5    26 1   
    13     6     7 1   
    14     6     8 1   
    15     6    27 1   
    16     7    28 1   
    17     8     9 1   
    18     8    11 1   
    19     8    29 1   
    20     9    10 1   
    21     9    30 1   
    22     9    31 1   
    23    10    32 1   
    24    12    13 1   
    25    13    14 ar  
    26    13    18 ar  
    27    14    15 ar  
    28    14    33 1   
    29    15    16 ar  
    30    15    34 1   
    31    16    17 ar  
    32    16    19 1   
    33    17    18 ar  
    34    17    35 1   
    35    18    36 1   
    36    19    20 1   
    37    19    21 1   
@<TRIPOS>SUBSTRUCTURE
     1 147         1 TEMP              0 ****  ****    0 ROOT
