@<TRIPOS>MOLECULE
147
   36    37     1     0     0
SMALL
bcc


@<TRIPOS>ATOM
      1 C1          -1.1510    -0.4600    -0.1600 c6         1 147       0.321900
      2 C2          -2.4390    -1.2710    -0.0410 c6         1 147       0.085100
      3 O2          -2.3350    -2.5070    -0.7010 oh         1 147      -0.600800
      4 C3          -3.5700    -0.4880    -0.7030 c6         1 147       0.117100
      5 O3          -4.8170    -1.1030    -0.5040 oh         1 147      -0.601800
      6 C4          -3.6510     0.9280    -0.1360 c6         1 147       0.124100
      7 O4          -4.0460     0.9320     1.2120 oh         1 147      -0.584800
      8 C5          -2.2790     1.5780    -0.2520 c6         1 147       0.155100
      9 C6          -2.2330     2.9810     0.3110 c3         1 147       0.149400
     10 O6          -0.9950     3.5530    -0.0350 oh         1 147      -0.597800
     11 O5          -1.3040     0.7970     0.4180 os         1 147      -0.400600
     12 O1          -0.1560    -1.1400     0.5480 os         1 147      -0.312900
     13 C7           1.1400    -0.8710     0.3100 ca         1 147       0.193100
     14 C8           2.0530    -1.8020     0.8090 ca         1 147      -0.194500
     15 C9           3.4050    -1.6280     0.6110 ca         1 147      -0.028000
     16 C10          3.8500    -0.5150    -0.0950 ca         1 147      -0.220200
     17 C11          2.9540     0.4230    -0.5860 ca         1 147      -0.028000
     18 C12          1.5970     0.2530    -0.3780 ca         1 147      -0.194500
     19 N1           5.2670    -0.3320    -0.3180 no         1 147       0.321200
     20 O7           6.0270    -1.1620     0.1280 o          1 147      -0.215500
     21 O8           5.6270     0.6410    -0.9400 o          1 147      -0.215500
     22 H1          -0.8620    -0.3700    -1.2220 h2         1 147       0.046700
     23 H2          -2.6670    -1.3990     1.0260 h1         1 147       0.079700
     24 HO2         -1.8650    -3.1270    -0.1350 ho         1 147       0.426000
     25 H3          -3.3410    -0.4000    -1.7770 h1         1 147       0.050700
     26 HO3         -4.7490    -2.0290    -0.7580 ho         1 147       0.433000
     27 H4          -4.3500     1.5060    -0.7590 h1         1 147       0.054700
     28 HO4         -4.8470     0.4020     1.2880 ho         1 147       0.426000
     29 H5          -2.0400     1.6360    -1.3270 h1         1 147       0.050700
     30 H61         -2.3810     2.9530     1.3970 h1         1 147       0.043200
     31 H62         -3.0750     3.5400    -0.1150 h1         1 147       0.043200
     32 HO6         -0.9520     4.4290     0.3570 ho         1 147       0.412000
     33 H7           1.6920    -2.6700     1.3450 ha         1 147       0.161000
     34 H8           4.0970    -2.3610     0.9970 ha         1 147       0.169500
     35 H9           3.2960     1.2960    -1.1220 ha         1 147       0.169500
     36 H6           0.9220     1.0160    -0.7380 ha         1 147       0.161000
@<TRIPOS>BOND
     1     1     2 1   
     2     1    11 1   
     3     1    12 1   
     4     1    22 1   
     5     2     3 1   
     6     2     4 1   
     7     2    23 1   
     8     3    24 1   
     9     4     5 1   
    10     4     6 1   
    11     4    25 1   
    12     5    26 1   
    13     6     7 1   
    14     6     8 1   
    15     6    27 1   
    16     7    28 1   
    17     8     9 1   
    18     8    11 1   
    19     8    29 1   
    20     9    10 1   
    21     9    30 1   
    22     9    31 1   
    23    10    32 1   
    24    12    13 1   
    25    13    14 ar  
    26    13    18 ar  
    27    14    15 ar  
    28    14    33 1   
    29    15    16 ar  
    30    15    34 1   
    31    16    17 ar  
    32    16    19 1   
    33    17    18 ar  
    34    17    35 1   
    35    18    36 1   
    36    19    20 1   
    37    19    21 1   
@<TRIPOS>SUBSTRUCTURE
     1 147         1 TEMP              0 ****  ****    0 ROOT
