@<TRIPOS>MOLECULE
148
   33    32     1     0     0
SMALL
No Charge or Current Charge


@<TRIPOS>ATOM
      1 O1           2.9380     0.1550    -0.2460 oh         1 148      -0.654333
      2 O2          -1.1950    -1.9610     1.6330 oh         1 148      -0.654333
      3 O3           1.5790    -2.0410    -1.8460 oh         1 148      -0.654333
      4 O4          -2.4810     0.5280     1.8340 oh         1 148      -0.675500
      5 O5          -0.7330     2.9830    -1.5560 oh         1 148      -0.675500
      6 N1          -0.1330     0.0930    -0.0060 n3         1 148      -0.782600
      7 C1           0.7840    -1.0770     0.3930 c3         1 148       0.205200
      8 C2           2.2740    -0.6570     0.7450 c3         1 148       0.157600
      9 C3           0.2230    -1.7410     1.7110 c3         1 148       0.157600
     10 C4           0.7860    -2.2670    -0.6610 c3         1 148       0.157600
     11 C5          -0.2330     1.1880     1.0210 c3         1 148       0.201800
     12 C6          -1.6840     1.6370     1.3740 c3         1 148       0.149600
     13 C7           0.0200     0.6050    -1.4170 c3         1 148       0.201800
     14 C8          -1.0330     1.6280    -1.9470 c3         1 148       0.149600
     15 HO1          3.8620     0.2850     0.0610 ho         1 148       0.450000
     16 HO2         -1.5780    -1.0600     1.4590 ho         1 148       0.450000
     17 HO3          1.4950    -2.8440    -2.4060 ho         1 148       0.450000
     18 HO4         -3.3750     0.8860     2.0330 ho         1 148       0.440500
     19 HO5         -1.4060     3.5590    -1.9820 ho         1 148       0.440500
     20 H21          2.2670    -0.1090     1.6970 h1         1 148       0.029367
     21 H22          2.8570    -1.5710     0.9230 h1         1 148       0.029367
     22 H31          0.7440    -2.6890     1.9030 h1         1 148       0.029367
     23 H32          0.4380    -1.0990     2.5740 h1         1 148       0.029367
     24 H41          1.1660    -3.1710    -0.1660 h1         1 148       0.029367
     25 H42         -0.2520    -2.4830    -0.9460 h1         1 148       0.029367
     26 H51          0.3340     2.0680     0.6910 h1         1 148       0.049700
     27 H52          0.2340     0.8930     1.9680 h1         1 148       0.049700
     28 H61         -2.1570     2.1000     0.5010 h1         1 148       0.026950
     29 H62         -1.6260     2.4070     2.1550 h1         1 148       0.026950
     30 H71          1.0130     1.0440    -1.5690 h1         1 148       0.049700
     31 H72         -0.0580    -0.2370    -2.1130 h1         1 148       0.049700
     32 H81         -1.0350     1.5650    -3.0430 h1         1 148       0.026950
     33 H82         -2.0350     1.3310    -1.6090 h1         1 148       0.026950
@<TRIPOS>BOND
     1     1     8 1   
     2     1    15 1   
     3     2     9 1   
     4     2    16 1   
     5     3    10 1   
     6     3    17 1   
     7     4    12 1   
     8     4    18 1   
     9     5    14 1   
    10     5    19 1   
    11     6     7 1   
    12     6    11 1   
    13     6    13 1   
    14     7     8 1   
    15     7     9 1   
    16     7    10 1   
    17     8    20 1   
    18     8    21 1   
    19     9    22 1   
    20     9    23 1   
    21    10    24 1   
    22    10    25 1   
    23    11    12 1   
    24    11    26 1   
    25    11    27 1   
    26    12    28 1   
    27    12    29 1   
    28    13    14 1   
    29    13    30 1   
    30    13    31 1   
    31    14    32 1   
    32    14    33 1   
@<TRIPOS>SUBSTRUCTURE
     1 148         1 TEMP              0 ****  ****    0 ROOT
