@<TRIPOS>MOLECULE
148
   33    32     1     0     0
SMALL
bcc


@<TRIPOS>ATOM
      1 O1           2.8690     0.0770    -0.0480 oh         1 148      -0.592133
      2 O2          -1.3340    -1.9460     1.3130 oh         1 148      -0.592133
      3 O3           1.6630    -1.9230    -1.7180 oh         1 148      -0.592133
      4 O4          -2.0570     0.6360     2.0700 oh         1 148      -0.613300
      5 O5          -1.3200     2.6110    -1.6150 oh         1 148      -0.613300
      6 N1           0.0450     0.2450     0.0060 n3         1 148      -0.782600
      7 C1           0.7320    -1.0030     0.3650 c3         1 148       0.205200
      8 C2           2.1930    -0.8070     0.8100 c3         1 148       0.134400
      9 C3           0.0070    -1.6390     1.5730 c3         1 148       0.134400
     10 C4           0.6350    -2.0510    -0.7570 c3         1 148       0.134400
     11 C5           0.0190     1.2810     1.0230 c3         1 148       0.201800
     12 C6          -1.3720     1.7150     1.4540 c3         1 148       0.126400
     13 C7           0.2080     0.7540    -1.3450 c3         1 148       0.201800
     14 C8          -1.0570     1.2770    -2.0050 c3         1 148       0.126400
     15 HO1          3.6980     0.3170     0.3740 ho         1 148       0.411000
     16 HO2         -1.7890    -1.0880     1.3160 ho         1 148       0.411000
     17 HO3          1.4980    -2.5800    -2.4010 ho         1 148       0.411000
     18 HO4         -2.9860     0.8710     2.1480 ho         1 148       0.401500
     19 HO5         -2.1710     2.8680    -1.9810 ho         1 148       0.401500
     20 H21          2.1950    -0.4170     1.8380 h1         1 148       0.029367
     21 H22          2.6870    -1.7880     0.8630 h1         1 148       0.029367
     22 H31          0.5230    -2.5690     1.8330 h1         1 148       0.029367
     23 H32          0.0990    -0.9860     2.4510 h1         1 148       0.029367
     24 H41          0.7000    -3.0430    -0.2910 h1         1 148       0.029367
     25 H42         -0.3580    -1.9850    -1.2180 h1         1 148       0.029367
     26 H51          0.5400     2.1810     0.6720 h1         1 148       0.049700
     27 H52          0.5710     0.9700     1.9140 h1         1 148       0.049700
     28 H61         -1.9240     2.0860     0.5900 h1         1 148       0.026950
     29 H62         -1.2620     2.5500     2.1580 h1         1 148       0.026950
     30 H71          0.9730     1.5430    -1.3970 h1         1 148       0.049700
     31 H72          0.5760    -0.0420    -1.9850 h1         1 148       0.049700
     32 H81         -0.9140     1.2250    -3.0930 h1         1 148       0.026950
     33 H82         -1.8890     0.6070    -1.7550 h1         1 148       0.026950
@<TRIPOS>BOND
     1     1     8 1   
     2     1    15 1   
     3     2     9 1   
     4     2    16 1   
     5     3    10 1   
     6     3    17 1   
     7     4    12 1   
     8     4    18 1   
     9     5    14 1   
    10     5    19 1   
    11     6     7 1   
    12     6    11 1   
    13     6    13 1   
    14     7     8 1   
    15     7     9 1   
    16     7    10 1   
    17     8    20 1   
    18     8    21 1   
    19     9    22 1   
    20     9    23 1   
    21    10    24 1   
    22    10    25 1   
    23    11    12 1   
    24    11    26 1   
    25    11    27 1   
    26    12    28 1   
    27    12    29 1   
    28    13    14 1   
    29    13    30 1   
    30    13    31 1   
    31    14    32 1   
    32    14    33 1   
@<TRIPOS>SUBSTRUCTURE
     1 148         1 TEMP              0 ****  ****    0 ROOT
