@<TRIPOS>MOLECULE
149
   22    22     1     0     0
SMALL
bcc


@<TRIPOS>ATOM
      1 C1           0.4440     1.4130     0.2270 c          1 149       0.722600
      2 C2           1.5240     0.3380     0.2110 c6         1 149       0.006100
      3 C3           1.1440    -0.8680    -0.6330 c6         1 149       0.123100
      4 C4          -0.2490    -1.3240    -0.2250 c6         1 149       0.117100
      5 C5          -1.2250    -0.1980    -0.4970 c6         1 149       0.172100
      6 C6          -2.6250    -0.5030    -0.0120 c3         1 149       0.146400
      7 O1           0.7070     2.5660     0.4420 o          1 149      -0.568500
      8 O2           2.7380     0.8480    -0.2590 oh         1 149      -0.588800
      9 O3           2.0270    -1.9400    -0.4410 oh         1 149      -0.602800
     10 O4          -0.3140    -1.6750     1.1330 oh         1 149      -0.592800
     11 O5          -0.8260     1.0520     0.0970 os         1 149      -0.401900
     12 O6          -3.4910     0.4900    -0.5020 oh         1 149      -0.586800
     13 H2           1.6070     0.0030     1.2570 h1         1 149       0.073700
     14 H3           1.1080    -0.5650    -1.6910 h1         1 149       0.060700
     15 H4          -0.5500    -2.1610    -0.8720 h1         1 149       0.061700
     16 H5          -1.2560    -0.0470    -1.5810 h1         1 149       0.071700
     17 H61         -2.8900    -1.4990    -0.3890 h1         1 149       0.040200
     18 H62         -2.6390    -0.5560     1.0820 h1         1 149       0.040200
     19 HO2          3.1030     1.4490     0.3970 ho         1 149       0.432000
     20 HO3          2.9290    -1.6310    -0.5840 ho         1 149       0.434000
     21 HO4          0.3120    -2.3900     1.2930 ho         1 149       0.428000
     22 HO6         -4.3710     0.3160    -0.1560 ho         1 149       0.410000
@<TRIPOS>BOND
     1     1     2 1   
     2     1     7 2   
     3     1    11 1   
     4     2     3 1   
     5     2     8 1   
     6     2    13 1   
     7     3     4 1   
     8     3     9 1   
     9     3    14 1   
    10     4     5 1   
    11     4    10 1   
    12     4    15 1   
    13     5     6 1   
    14     5    11 1   
    15     5    16 1   
    16     6    12 1   
    17     6    17 1   
    18     6    18 1   
    19     8    19 1   
    20     9    20 1   
    21    10    21 1   
    22    12    22 1   
@<TRIPOS>SUBSTRUCTURE
     1 149         1 TEMP              0 ****  ****    0 ROOT
