@<TRIPOS>MOLECULE
149
   22    22     1     0     0
SMALL
No Charge or Current Charge


@<TRIPOS>ATOM
      1 C1           0.4800     1.4330     0.2950 c          1 149       0.647100
      2 C2           1.5910     0.3230     0.1740 c6         1 149       0.029300
      3 C3           1.1400    -0.9460    -0.5960 c6         1 149       0.146300
      4 C4          -0.2860    -1.3760    -0.1710 c6         1 149       0.140300
      5 C5          -1.2310    -0.1810    -0.4770 c6         1 149       0.195300
      6 C6          -2.7240    -0.4850    -0.1280 c3         1 149       0.169600
      7 O1           0.7640     2.5470     0.7160 o          1 149      -0.493000
      8 O2           2.8420     0.8280    -0.3860 oh         1 149      -0.711000
      9 O3           2.0850    -2.0050    -0.3700 oh         1 149      -0.665000
     10 O4          -0.2940    -1.7550     1.2230 oh         1 149      -0.715000
     11 O5          -0.8330     1.0290     0.2170 os         1 149      -0.425100
     12 O6          -3.6150     0.6010    -0.4550 oh         1 149      -0.649000
     13 H2           1.7560     0.0220     1.2200 h1         1 149       0.073700
     14 H3           1.1110    -0.7020    -1.6700 h1         1 149       0.060700
     15 H4          -0.5920    -2.2290    -0.7970 h1         1 149       0.061700
     16 H5          -1.1840     0.0210    -1.5570 h1         1 149       0.071700
     17 H61         -3.0240    -1.3920    -0.6720 h1         1 149       0.040200
     18 H62         -2.7890    -0.7130     0.9450 h1         1 149       0.040200
     19 HO2          3.0520     1.6790     0.0750 ho         1 149       0.531000
     20 HO3          2.9700    -1.5850    -0.4840 ho         1 149       0.473000
     21 HO4          0.4960    -2.3370     1.3360 ho         1 149       0.527000
     22 HO6         -4.5100     0.3420    -0.1410 ho         1 149       0.449000
@<TRIPOS>BOND
     1     1     2 1   
     2     1     7 2   
     3     1    11 1   
     4     2     3 1   
     5     2     8 1   
     6     2    13 1   
     7     3     4 1   
     8     3     9 1   
     9     3    14 1   
    10     4     5 1   
    11     4    10 1   
    12     4    15 1   
    13     5     6 1   
    14     5    11 1   
    15     5    16 1   
    16     6    12 1   
    17     6    17 1   
    18     6    18 1   
    19     8    19 1   
    20     9    20 1   
    21    10    21 1   
    22    12    22 1   
@<TRIPOS>SUBSTRUCTURE
     1 149         1 TEMP              0 ****  ****    0 ROOT
