@<TRIPOS>MOLECULE
14A
   54    55     1     0     0
SMALL
abcg2


@<TRIPOS>ATOM
      1 N1          -0.7540     2.5020     7.4860 n2         1 14A      -0.854100
      2 C2          -0.5710     1.4050     8.1040 c2         1 14A       0.742100
      3 N3          -0.2980     1.3630     9.4480 nv         1 14A      -1.021200
      4 N4          -0.6030     0.1180     7.5550 nu         1 14A      -0.683900
      5 O5          -1.1500     0.0710     6.2900 os         1 14A      -0.241300
      6 C6          -0.1750    -0.3500     5.3450 c3         1 14A       0.157600
      7 C7          -0.8330    -0.3180     3.9790 c3         1 14A      -0.092400
      8 C8           0.1440    -0.7790     2.9170 c3         1 14A       0.166600
      9 O9          -0.5080    -0.6770     1.6600 os         1 14A      -0.343100
     10 C10          0.1810    -0.9490     0.5420 ca         1 14A       0.155100
     11 C11          1.4860    -1.4380     0.5320 ca         1 14A      -0.191000
     12 C12          2.0980    -1.6730    -0.6910 ca         1 14A       0.155000
     13 C13          1.4670    -1.4300    -1.8960 ca         1 14A      -0.120000
     14 C14          0.1630    -0.9420    -1.8640 ca         1 14A      -0.094600
     15 C15         -0.4840    -0.7150    -0.6630 ca         1 14A      -0.117000
     16 CL16         3.7170    -2.2890    -0.6970 cl         1 14A      -0.200000
     17 C17         -0.5930    -0.7400    -3.1460 c          1 14A       0.611700
     18 O18         -1.4410    -1.5620    -3.4660 o          1 14A      -0.584100
     19 N19         -0.2850     0.3400    -3.8840 n          1 14A      -0.397800
     20 C20          0.6330     1.3810    -3.4390 c3         1 14A       0.135200
     21 C21          1.9080     1.3770    -4.2230 c2         1 14A      -0.242200
     22 C22          2.3430     2.4060    -4.9390 c2         1 14A      -0.301000
     23 C23         -0.9480     0.5830    -5.1650 c5         1 14A       0.110700
     24 C24         -2.4420     0.9340    -5.0510 c5         1 14A      -0.085900
     25 C25         -3.0230     0.4790    -6.3860 c5         1 14A      -0.077900
     26 C26         -2.2900    -0.8360    -6.6520 c5         1 14A      -0.077900
     27 C27         -0.8490    -0.5550    -6.2130 c5         1 14A      -0.085900
     28 HN1         -1.0500     2.3330     6.5320 hn         1 14A       0.402400
     29 HN31        -0.0470     2.2560     9.8400 hn         1 14A       0.465500
     30 HN32         0.3100     0.6220     9.7600 hn         1 14A       0.465500
     31 HN4         -1.0690    -0.5640     8.1430 hn         1 14A       0.467000
     32 H61          0.1720    -1.3610     5.5850 h1         1 14A       0.040700
     33 H62          0.6930     0.3180     5.3700 h1         1 14A       0.040700
     34 H71         -1.1630     0.7000     3.7530 hc         1 14A       0.071200
     35 H72         -1.7130    -0.9660     3.9750 hc         1 14A       0.071200
     36 H81          0.4530    -1.8140     3.1040 h1         1 14A       0.038700
     37 H82          1.0440    -0.1540     2.9250 h1         1 14A       0.038700
     38 H11          2.0260    -1.6420     1.4460 ha         1 14A       0.133000
     39 H13          1.9720    -1.6150    -2.8340 ha         1 14A       0.138000
     40 H15         -1.4980    -0.3350    -0.6430 ha         1 14A       0.142000
     41 H201         0.8470     1.2480    -2.3800 h1         1 14A       0.057700
     42 H202         0.1340     2.3490    -3.5310 h1         1 14A       0.057700
     43 H21          2.4940     0.4640    -4.1810 ha         1 14A       0.177000
     44 H221         3.2790     2.3640    -5.4790 ha         1 14A       0.165000
     45 H222         1.7820     3.3310    -5.0050 ha         1 14A       0.165000
     46 H23         -0.4330     1.4510    -5.5790 h1         1 14A       0.048700
     47 H241        -2.9080     0.3740    -4.2400 hc         1 14A       0.050950
     48 H242        -2.5930     1.9950    -4.8490 hc         1 14A       0.050950
     49 H251        -2.7930     1.2060    -7.1700 hc         1 14A       0.046700
     50 H252        -4.1070     0.3680    -6.3570 hc         1 14A       0.046700
     51 H261        -2.3570    -1.1600    -7.6910 hc         1 14A       0.046700
     52 H262        -2.7220    -1.6250    -6.0330 hc         1 14A       0.046700
     53 H271        -0.2600    -0.2010    -7.0610 hc         1 14A       0.050950
     54 H272        -0.3450    -1.4430    -5.8360 hc         1 14A       0.050950
@<TRIPOS>BOND
     1     1     2 2   
     2     1    28 1   
     3     2     3 1   
     4     2     4 1   
     5     3    29 1   
     6     3    30 1   
     7     4     5 1   
     8     4    31 1   
     9     5     6 1   
    10     6     7 1   
    11     6    32 1   
    12     6    33 1   
    13     7     8 1   
    14     7    34 1   
    15     7    35 1   
    16     8     9 1   
    17     8    36 1   
    18     8    37 1   
    19     9    10 1   
    20    10    11 ar  
    21    10    15 ar  
    22    11    12 ar  
    23    11    38 1   
    24    12    13 ar  
    25    12    16 1   
    26    13    14 ar  
    27    13    39 1   
    28    14    15 ar  
    29    14    17 1   
    30    15    40 1   
    31    17    18 2   
    32    17    19 1   
    33    19    20 1   
    34    19    23 1   
    35    20    21 1   
    36    20    41 1   
    37    20    42 1   
    38    21    22 2   
    39    21    43 1   
    40    22    44 1   
    41    22    45 1   
    42    23    24 1   
    43    23    27 1   
    44    23    46 1   
    45    24    25 1   
    46    24    47 1   
    47    24    48 1   
    48    25    26 1   
    49    25    49 1   
    50    25    50 1   
    51    26    27 1   
    52    26    51 1   
    53    26    52 1   
    54    27    53 1   
    55    27    54 1   
@<TRIPOS>SUBSTRUCTURE
     1 14A         1 TEMP              0 ****  ****    0 ROOT
