@<TRIPOS>MOLECULE
14A
   54    55     1     0     0
SMALL
No Charge or Current Charge


@<TRIPOS>ATOM
      1 N1          -1.5720     1.7310     8.5710 n2         1 14A      -0.854100
      2 C2          -1.0360     0.6440     8.8630 c2         1 14A       0.742100
      3 N3          -0.7210     0.2350    10.0750 nv         1 14A      -1.021200
      4 N4          -0.5280    -0.2050     7.9480 nu         1 14A      -0.683900
      5 O5          -1.0370    -0.0710     6.6060 os         1 14A      -0.241300
      6 C6          -0.0130    -0.3250     5.6260 c3         1 14A       0.157600
      7 C7          -0.6440    -0.1520     4.2330 c3         1 14A      -0.092400
      8 C8           0.3600    -0.3990     3.0950 c3         1 14A       0.166600
      9 O9          -0.3370    -0.2100     1.8520 os         1 14A      -0.343100
     10 C10          0.2840    -0.3590     0.6290 ca         1 14A       0.155100
     11 C11          1.6450    -0.7050     0.5070 ca         1 14A      -0.191000
     12 C12          2.2120    -0.8530    -0.7660 ca         1 14A       0.155000
     13 C13          1.4390    -0.6470    -1.9180 ca         1 14A      -0.120000
     14 C14          0.0810    -0.2710    -1.8140 ca         1 14A      -0.094600
     15 C15         -0.4880    -0.1530    -0.5260 ca         1 14A      -0.117000
     16 Cl16         3.9010    -1.3130    -0.9210 cl         1 14A      -0.200000
     17 C17         -0.7820    -0.0600    -3.0430 c          1 14A       0.611700
     18 O18         -1.9600    -0.3940    -3.0120 o          1 14A      -0.584100
     19 N19         -0.1670     0.4610    -4.2220 n          1 14A      -0.397800
     20 C20          0.8040     1.5710    -4.0560 c3         1 14A       0.135200
     21 C21          2.1030     1.3460    -4.8050 c2         1 14A      -0.242200
     22 C22          2.3690     1.7760    -6.0500 c2         1 14A      -0.301000
     23 C23         -0.7530     0.2310    -5.5850 c5         1 14A       0.110700
     24 C24         -1.9900     1.1580    -5.7760 c5         1 14A      -0.085900
     25 C25         -2.8030     0.3370    -6.8070 c5         1 14A      -0.077900
     26 C26         -2.7690    -1.0660    -6.1440 c5         1 14A      -0.077900
     27 C27         -1.2600    -1.2400    -5.7910 c5         1 14A      -0.085900
     28 HN1         -1.5920     1.7250     7.5440 hn         1 14A       0.402400
     29 HN31        -0.9070     0.9610    10.7540 hn         1 14A       0.465500
     30 HN32         0.2220    -0.1260    10.1230 hn         1 14A       0.465500
     31 HN4         -0.6540    -1.1690     8.2510 hn         1 14A       0.467000
     32 H61          0.3790    -1.3460     5.7280 h1         1 14A       0.040700
     33 H62          0.8200     0.3810     5.7430 h1         1 14A       0.040700
     34 H71         -1.0470     0.8650     4.1440 hc         1 14A       0.071200
     35 H72         -1.4840    -0.8490     4.1290 hc         1 14A       0.071200
     36 H81          0.7540    -1.4210     3.1680 h1         1 14A       0.038700
     37 H82          1.1960     0.3090     3.1820 h1         1 14A       0.038700
     38 H11          2.2700    -0.8720     1.3790 ha         1 14A       0.133000
     39 H13          1.8920    -0.8060    -2.8920 ha         1 14A       0.138000
     40 H15         -1.5360     0.1130    -0.4180 ha         1 14A       0.142000
     41 H201         1.0190     1.7540    -2.9950 h1         1 14A       0.057700
     42 H202         0.3320     2.4890    -4.4310 h1         1 14A       0.057700
     43 H21          2.8610     0.8010    -4.2400 ha         1 14A       0.177000
     44 H221         3.3320     1.5850    -6.5270 ha         1 14A       0.165000
     45 H222         1.6360     2.3330    -6.6360 ha         1 14A       0.165000
     46 H23         -0.0090     0.4520    -6.3620 h1         1 14A       0.048700
     47 H241        -2.5630     1.3130    -4.8550 hc         1 14A       0.050950
     48 H242        -1.7100     2.1480    -6.1530 hc         1 14A       0.050950
     49 H251        -2.3270     0.3340    -7.7960 hc         1 14A       0.046700
     50 H252        -3.8230     0.7160    -6.9320 hc         1 14A       0.046700
     51 H261        -3.1320    -1.8530    -6.8150 hc         1 14A       0.046700
     52 H262        -3.3980    -1.0950    -5.2460 hc         1 14A       0.046700
     53 H271        -0.7240    -1.6990    -6.6290 hc         1 14A       0.050950
     54 H272        -1.1030    -1.9060    -4.9370 hc         1 14A       0.050950
@<TRIPOS>BOND
     1     1     2 2   
     2     1    28 1   
     3     2     3 1   
     4     2     4 1   
     5     3    29 1   
     6     3    30 1   
     7     4     5 1   
     8     4    31 1   
     9     5     6 1   
    10     6     7 1   
    11     6    32 1   
    12     6    33 1   
    13     7     8 1   
    14     7    34 1   
    15     7    35 1   
    16     8     9 1   
    17     8    36 1   
    18     8    37 1   
    19     9    10 1   
    20    10    11 ar  
    21    10    15 ar  
    22    11    12 ar  
    23    11    38 1   
    24    12    13 ar  
    25    12    16 1   
    26    13    14 ar  
    27    13    39 1   
    28    14    15 ar  
    29    14    17 1   
    30    15    40 1   
    31    17    18 2   
    32    17    19 1   
    33    19    20 1   
    34    19    23 1   
    35    20    21 1   
    36    20    41 1   
    37    20    42 1   
    38    21    22 2   
    39    21    43 1   
    40    22    44 1   
    41    22    45 1   
    42    23    24 1   
    43    23    27 1   
    44    23    46 1   
    45    24    25 1   
    46    24    47 1   
    47    24    48 1   
    48    25    26 1   
    49    25    49 1   
    50    25    50 1   
    51    26    27 1   
    52    26    51 1   
    53    26    52 1   
    54    27    53 1   
    55    27    54 1   
@<TRIPOS>SUBSTRUCTURE
     1 14A         1 TEMP              0 ****  ****    0 ROOT
