@<TRIPOS>MOLECULE
14B
   22    22     1     0     0
SMALL
No Charge or Current Charge


@<TRIPOS>ATOM
      1 CAA         -2.4050     2.6060    -0.0610 c3         1 14B      -0.018800
      2 CAB         -2.0960    -2.4450     0.1020 c3         1 14B      -0.020800
      3 NAC          0.7770    -2.1330     0.0690 nv         1 14B      -1.095000
      4 OAD          2.6370     1.3560     0.5870 o          1 14B      -0.728500
      5 OAE          2.8200    -0.3430    -0.7170 o          1 14B      -0.728500
      6 CAF         -2.1660     0.0820     0.0180 ca         1 14B      -0.082000
      7 CAG         -0.1530     1.4360    -0.0460 ca         1 14B      -0.042000
      8 CAH          2.1500     0.4250    -0.0390 c          1 14B       0.721600
      9 CAI         -1.5550     1.3440    -0.0260 ca         1 14B      -0.173300
     10 CAJ         -1.3870    -1.0910     0.0490 ca         1 14B      -0.194300
     11 CAK          0.0240    -0.9910     0.0320 ca         1 14B       0.326000
     12 CAL          0.6490     0.2740    -0.0220 ca         1 14B      -0.206600
     13 HAA         -2.6240     2.9000    -1.0950 hc         1 14B       0.018700
     14 HAAA        -3.3610     2.4590     0.4560 hc         1 14B       0.018700
     15 HAAB        -1.8940     3.4460     0.4250 hc         1 14B       0.018700
     16 HAB         -1.8430    -3.0590    -0.7700 hc         1 14B       0.018700
     17 HABA        -1.8160    -3.0040     1.0040 hc         1 14B       0.018700
     18 HABB        -3.1870    -2.3340     0.1150 hc         1 14B       0.018700
     19 HNAC         0.3210    -3.0140    -0.1490 hn         1 14B       0.464500
     20 HNAA         1.7490    -2.0340    -0.2290 hn         1 14B       0.464500
     21 HAF         -3.2520     0.0130     0.0300 ha         1 14B       0.076000
     22 HAG          0.3190     2.4160    -0.0870 ha         1 14B       0.125000
@<TRIPOS>BOND
     1     1     9 1   
     2     1    13 1   
     3     1    14 1   
     4     1    15 1   
     5     2    10 1   
     6     2    16 1   
     7     2    17 1   
     8     2    18 1   
     9     3    11 1   
    10     3    19 1   
    11     3    20 1   
    12     4     8 1   
    13     5     8 1   
    14     6     9 ar  
    15     6    10 ar  
    16     6    21 1   
    17     7     9 ar  
    18     7    12 ar  
    19     7    22 1   
    20     8    12 1   
    21    10    11 ar  
    22    11    12 ar  
@<TRIPOS>SUBSTRUCTURE
     1 14B         1 TEMP              0 ****  ****    0 ROOT
