@<TRIPOS>MOLECULE
14B
   22    22     1     0     0
SMALL
abcg2


@<TRIPOS>ATOM
      1 CAA         -2.3960     2.5950    -0.0180 c3         1 14B      -0.018800
      2 CAB         -2.0790    -2.4180     0.0170 c3         1 14B      -0.020800
      3 NAC          0.7350    -2.1760     0.1060 nv         1 14B      -1.095000
      4 OAD          2.5720     1.6120     0.0740 o          1 14B      -0.728500
      5 OAE          2.8610    -0.5760    -0.1260 o          1 14B      -0.728500
      6 CAF         -2.1450     0.0860    -0.0130 ca         1 14B      -0.082000
      7 CAG         -0.1710     1.4010     0.0150 ca         1 14B      -0.042000
      8 CAH          2.1420     0.4480    -0.0080 c          1 14B       0.721600
      9 CAI         -1.5540     1.3510    -0.0040 ca         1 14B      -0.173300
     10 CAJ         -1.4010    -1.0790     0.0050 ca         1 14B      -0.194300
     11 CAK          0.0110    -1.0070     0.0250 ca         1 14B       0.326000
     12 CAL          0.6340     0.2590     0.0220 ca         1 14B      -0.206600
     13 HAA         -3.0340     2.6420    -0.9030 hc         1 14B       0.018700
     14 HAAA        -3.0560     2.6470     0.8510 hc         1 14B       0.018700
     15 HAAB        -1.7780     3.4930    -0.0130 hc         1 14B       0.018700
     16 HAB         -1.8270    -3.0170    -0.8630 hc         1 14B       0.018700
     17 HABA        -1.7940    -3.0090     0.8910 hc         1 14B       0.018700
     18 HABB        -3.1620    -2.3070     0.0300 hc         1 14B       0.018700
     19 HNAC         0.3330    -2.9810    -0.3440 hn         1 14B       0.464500
     20 HNAA         1.7200    -2.0260    -0.0880 hn         1 14B       0.464500
     21 HAF         -3.2280     0.0060    -0.0290 ha         1 14B       0.076000
     22 HAG          0.3240     2.3650     0.0170 ha         1 14B       0.125000
@<TRIPOS>BOND
     1     1     9 1   
     2     1    13 1   
     3     1    14 1   
     4     1    15 1   
     5     2    10 1   
     6     2    16 1   
     7     2    17 1   
     8     2    18 1   
     9     3    11 1   
    10     3    19 1   
    11     3    20 1   
    12     4     8 1   
    13     5     8 1   
    14     6     9 ar  
    15     6    10 ar  
    16     6    21 1   
    17     7     9 ar  
    18     7    12 ar  
    19     7    22 1   
    20     8    12 1   
    21    10    11 ar  
    22    11    12 ar  
@<TRIPOS>SUBSTRUCTURE
     1 14B         1 TEMP              0 ****  ****    0 ROOT
