@<TRIPOS>MOLECULE
14C
   28    30     1     0     0
SMALL
bcc


@<TRIPOS>ATOM
      1 C10         -3.7920    -0.6100     0.1990 ca         1 14C      -0.001300
      2 C13         -4.2020    -1.9950     0.5900 c3         1 14C      -0.054800
      3 C30          3.4000    -0.1580     0.6810 ca         1 14C       0.515300
      4 C28          2.0760     0.2530     0.6980 ca         1 14C      -0.231300
      5 N32          3.8590    -1.1960     0.0270 nb         1 14C      -0.660000
      6 C34          2.9850    -1.9050    -0.6810 ca         1 14C       0.425200
      7 C36          1.6400    -1.5960    -0.7640 ca         1 14C      -0.243300
      8 C26          1.1810    -0.4940    -0.0520 ca         1 14C       0.102600
      9 N19         -0.1760    -0.1330    -0.0890 n          1 14C      -0.459600
     10 C21         -0.6400     1.1460    -0.4080 c          1 14C       0.735100
     11 O23          0.0520     2.0850    -0.6950 o          1 14C      -0.542500
     12 C6          -2.1120     1.0650    -0.3250 ca         1 14C      -0.139600
     13 C4          -3.0480     2.0510    -0.5460 ca         1 14C      -0.068000
     14 C2          -4.3830     1.6890    -0.3890 ca         1 14C      -0.108000
     15 C15         -1.2290    -1.0150     0.1910 c          1 14C       0.737100
     16 O17         -1.0880    -2.1670     0.5020 o          1 14C      -0.547500
     17 C8          -2.4680    -0.2260     0.0350 ca         1 14C      -0.150600
     18 C1          -4.7390     0.3950    -0.0260 ca         1 14C      -0.119000
     19 H13         -3.7700    -2.2800     1.5480 hc         1 14C       0.058033
     20 H13A        -5.2850    -2.0670     0.6700 hc         1 14C       0.058033
     21 H13B        -3.8680    -2.7280    -0.1450 hc         1 14C       0.058033
     22 H28          1.7620     1.1060     1.2800 ha         1 14C       0.169000
     23 H34          3.3810    -2.7580    -1.2180 h4         1 14C       0.029100
     24 H36          0.9820    -2.1940    -1.3770 ha         1 14C       0.159000
     25 H4          -2.7640     3.0560    -0.8260 ha         1 14C       0.159000
     26 H2          -5.1610     2.4240    -0.5490 ha         1 14C       0.143000
     27 H1          -5.7890     0.1540     0.0860 ha         1 14C       0.141000
     28 CL39         4.5540     0.7520     1.6000 cl         1 14C      -0.163000
@<TRIPOS>BOND
     1     1     2 1   
     2     1    17 ar  
     3     1    18 ar  
     4     2    19 1   
     5     2    20 1   
     6     2    21 1   
     7     3     4 ar  
     8     3     5 ar  
     9     3    28 1   
    10     4     8 ar  
    11     4    22 1   
    12     5     6 ar  
    13     6     7 ar  
    14     6    23 1   
    15     7     8 ar  
    16     7    24 1   
    17     8     9 1   
    18     9    10 1   
    19     9    15 1   
    20    10    11 2   
    21    10    12 1   
    22    12    13 ar  
    23    12    17 ar  
    24    13    14 ar  
    25    13    25 1   
    26    14    18 ar  
    27    14    26 1   
    28    15    16 2   
    29    15    17 1   
    30    18    27 1   
@<TRIPOS>SUBSTRUCTURE
     1 14C         1 TEMP              0 ****  ****    0 ROOT
