@<TRIPOS>MOLECULE
14C
   28    30     1     0     0
SMALL
No Charge or Current Charge


@<TRIPOS>ATOM
      1 C10         -3.8420    -0.6020     0.1510 ca         1 14C      -0.001300
      2 C13         -4.2490    -2.0350     0.4640 c3         1 14C      -0.054800
      3 C30          3.5160    -0.0700     0.5730 ca         1 14C       0.450000
      4 C28          2.1720     0.3310     0.5690 ca         1 14C      -0.148000
      5 N32          3.9510    -1.2220     0.0220 nb         1 14C      -0.660000
      6 C34          3.0290    -2.0200    -0.5600 ca         1 14C       0.359900
      7 C36          1.6630    -1.7000    -0.6110 ca         1 14C      -0.160000
      8 C26          1.2110    -0.4990    -0.0360 ca         1 14C       0.102600
      9 N19         -0.1770    -0.1320    -0.0660 n          1 14C      -0.325600
     10 C21         -0.6450     1.1640    -0.3240 c          1 14C       0.592600
     11 O23          0.0240     2.1560    -0.5750 o          1 14C      -0.467000
     12 C6          -2.1310     1.0860    -0.2570 ca         1 14C      -0.139600
     13 C4          -3.0880     2.0940    -0.4380 ca         1 14C      -0.050000
     14 C2          -4.4470     1.7390    -0.3190 ca         1 14C      -0.090000
     15 C15         -1.2370    -1.0250     0.1580 c          1 14C       0.594600
     16 O17         -1.1450    -2.2150     0.4280 o          1 14C      -0.472000
     17 C8          -2.4920    -0.2230     0.0280 ca         1 14C      -0.150600
     18 C1          -4.8190     0.4040    -0.0280 ca         1 14C      -0.101000
     19 H13         -3.8410    -2.3570     1.4290 hc         1 14C       0.058033
     20 H13A        -5.3390    -2.1460     0.5130 hc         1 14C       0.058033
     21 H13B        -3.8820    -2.7240    -0.3050 hc         1 14C       0.058033
     22 H28          1.8940     1.2660     1.0430 ha         1 14C       0.151000
     23 H34          3.3970    -2.9450    -1.0030 h4         1 14C       0.029100
     24 H36          0.9780    -2.3810    -1.1060 ha         1 14C       0.141000
     25 H4          -2.7920     3.1170    -0.6620 ha         1 14C       0.141000
     26 H2          -5.2150     2.4970    -0.4540 ha         1 14C       0.125000
     27 H1          -5.8750     0.1560     0.0580 ha         1 14C       0.123000
     28 Cl39         4.7400     0.9410     1.3260 cl         1 14C      -0.163000
@<TRIPOS>BOND
     1     1     2 1   
     2     1    17 ar  
     3     1    18 ar  
     4     2    19 1   
     5     2    20 1   
     6     2    21 1   
     7     3     4 ar  
     8     3     5 ar  
     9     3    28 1   
    10     4     8 ar  
    11     4    22 1   
    12     5     6 ar  
    13     6     7 ar  
    14     6    23 1   
    15     7     8 ar  
    16     7    24 1   
    17     8     9 1   
    18     9    10 1   
    19     9    15 1   
    20    10    11 2   
    21    10    12 1   
    22    12    13 ar  
    23    12    17 ar  
    24    13    14 ar  
    25    13    25 1   
    26    14    18 ar  
    27    14    26 1   
    28    15    16 2   
    29    15    17 1   
    30    18    27 1   
@<TRIPOS>SUBSTRUCTURE
     1 14C         1 TEMP              0 ****  ****    0 ROOT
