@<TRIPOS>MOLECULE
14D
   57    60     1     0     0
SMALL
bcc


@<TRIPOS>ATOM
      1 C1           6.5210     3.1000     2.3350 c3         1 14D      -0.019900
      2 C2           6.4480     1.9490     1.3860 cc         1 14D      -0.265400
      3 C3           5.3010     1.5390     0.8160 cd         1 14D       0.041600
      4 N1           5.1930     0.4900    -0.0590 n          1 14D      -0.374000
      5 C4           6.3030    -0.2380    -0.4120 c          1 14D       0.825500
      6 O1           6.2830    -1.1800    -1.1790 o          1 14D      -0.636500
      7 N2           7.4710     0.1810     0.1760 ns         1 14D      -0.603500
      8 C5           7.6590     1.2300     1.0560 c          1 14D       0.729700
      9 O2           8.7680     1.4860     1.4910 o          1 14D      -0.603500
     10 C6           3.8690     0.1760    -0.6200 c6         1 14D       0.123700
     11 C7           3.7790     0.3630    -2.1290 c6         1 14D      -0.091400
     12 C8           2.3410     0.1000    -2.5640 c6         1 14D      -0.074400
     13 C9           1.8520    -1.2450    -2.0540 c6         1 14D       0.160800
     14 N3           1.9680    -1.3170    -0.6060 n3         1 14D      -0.730600
     15 C10          3.3510    -1.1950    -0.1860 c6         1 14D       0.155800
     16 C11          1.3340    -2.4990    -0.0670 c3         1 14D       0.217100
     17 C12         -0.1700    -2.4370    -0.1630 ca         1 14D      -0.060300
     18 C13         -0.9110    -3.5760    -0.4590 ca         1 14D      -0.150000
     19 C14         -2.2960    -3.5120    -0.5150 ca         1 14D      -0.100000
     20 C15         -2.9640    -2.3180    -0.2870 ca         1 14D      -0.186000
     21 C16         -2.2170    -1.1830     0.0110 ca         1 14D       0.118100
     22 C17         -0.8330    -1.2390     0.0780 ca         1 14D      -0.128000
     23 O3          -2.7830     0.0490     0.1960 os         1 14D      -0.253200
     24 C18         -4.0710     0.1500     0.6320 ca         1 14D       0.108100
     25 C19         -4.4860    -0.4450     1.8190 ca         1 14D      -0.133000
     26 C20         -5.7890    -0.2640     2.2480 ca         1 14D      -0.119000
     27 C21         -6.6800     0.5070     1.5120 ca         1 14D      -0.089000
     28 C22         -6.2500     1.0990     0.3340 ca         1 14D      -0.181300
     29 C23         -4.9450     0.9190    -0.1160 ca         1 14D      -0.094000
     30 C24         -7.1640     1.9560    -0.4860 c3         1 14D       0.721200
     31 F1          -7.2060     1.5520    -1.7640 f          1 14D      -0.233300
     32 F2          -8.4190     1.9550    -0.0330 f          1 14D      -0.233300
     33 F3          -6.7540     3.2330    -0.5050 f          1 14D      -0.233300
     34 H1           6.9040     2.7910     3.3080 hc         1 14D       0.047033
     35 H2           7.1830     3.8830     1.9620 hc         1 14D       0.047033
     36 H3           5.5370     3.5420     2.4860 hc         1 14D       0.047033
     37 H4           4.3690     2.0420     1.0340 h4         1 14D       0.155000
     38 H5           8.2930    -0.3550    -0.0760 hn         1 14D       0.342500
     39 H6           3.1980     0.9070    -0.1640 h1         1 14D       0.065700
     40 H7           4.0860     1.3760    -2.3970 hc         1 14D       0.061700
     41 H8           4.4480    -0.3300    -2.6400 hc         1 14D       0.061700
     42 H9           1.6850     0.8860    -2.1780 hc         1 14D       0.052200
     43 H10          2.2680     0.1270    -3.6530 hc         1 14D       0.052200
     44 H11          0.8070    -1.3850    -2.3350 h1         1 14D       0.042200
     45 H12          2.4250    -2.0570    -2.5360 h1         1 14D       0.042200
     46 H14          3.9760    -1.9980    -0.6010 h1         1 14D       0.052200
     47 H15          3.3990    -1.2680     0.9030 h1         1 14D       0.052200
     48 H16          1.6920    -3.4250    -0.5470 h1         1 14D       0.043700
     49 H17          1.6110    -2.5810     0.9900 h1         1 14D       0.043700
     50 H18         -0.4050    -4.5130    -0.6600 ha         1 14D       0.134000
     51 H19         -2.8680    -4.3990    -0.7570 ha         1 14D       0.134000
     52 H20         -4.0430    -2.2790    -0.3570 ha         1 14D       0.144000
     53 H21         -0.2640    -0.3430     0.2930 ha         1 14D       0.161000
     54 H22         -3.7970    -1.0400     2.4050 ha         1 14D       0.151000
     55 H23         -6.1150    -0.7230     3.1710 ha         1 14D       0.142000
     56 H24         -7.6910     0.6350     1.8690 ha         1 14D       0.153000
     57 H25         -4.5970     1.3710    -1.0360 ha         1 14D       0.162000
@<TRIPOS>BOND
     1     1     2 1   
     2     1    34 1   
     3     1    35 1   
     4     1    36 1   
     5     2     3 2   
     6     2     8 1   
     7     3     4 1   
     8     3    37 1   
     9     4     5 1   
    10     4    10 1   
    11     5     6 2   
    12     5     7 1   
    13     7     8 1   
    14     7    38 1   
    15     8     9 2   
    16    10    11 1   
    17    10    15 1   
    18    10    39 1   
    19    11    12 1   
    20    11    40 1   
    21    11    41 1   
    22    12    13 1   
    23    12    42 1   
    24    12    43 1   
    25    13    14 1   
    26    13    44 1   
    27    13    45 1   
    28    14    15 1   
    29    14    16 1   
    30    15    46 1   
    31    15    47 1   
    32    16    17 1   
    33    16    48 1   
    34    16    49 1   
    35    17    18 ar  
    36    17    22 ar  
    37    18    19 ar  
    38    18    50 1   
    39    19    20 ar  
    40    19    51 1   
    41    20    21 ar  
    42    20    52 1   
    43    21    22 ar  
    44    21    23 1   
    45    22    53 1   
    46    23    24 1   
    47    24    25 ar  
    48    24    29 ar  
    49    25    26 ar  
    50    25    54 1   
    51    26    27 ar  
    52    26    55 1   
    53    27    28 ar  
    54    27    56 1   
    55    28    29 ar  
    56    28    30 1   
    57    29    57 1   
    58    30    31 1   
    59    30    32 1   
    60    30    33 1   
@<TRIPOS>SUBSTRUCTURE
     1 14D         1 TEMP              0 ****  ****    0 ROOT
