@<TRIPOS>MOLECULE
14D
   57    60     1     0     0
SMALL
No Charge or Current Charge


@<TRIPOS>ATOM
      1 C1           7.3640     3.3390     1.7380 c3         1 14D      -0.019900
      2 C2           6.9930     2.0170     1.1070 cc         1 14D      -0.265400
      3 C3           5.7530     1.7380     0.5720 cd         1 14D      -0.008400
      4 N1           5.4800     0.4900     0.0050 n          1 14D      -0.307000
      5 C4           6.4800    -0.5100    -0.0380 c          1 14D       0.616000
      6 O1           6.3150    -1.6150    -0.5250 o          1 14D      -0.561000
      7 N2           7.6810    -0.1810     0.5030 ns         1 14D      -0.469500
      8 C5           8.0550     0.9880     1.0810 c          1 14D       0.587200
      9 O2           9.1820     1.1360     1.5270 o          1 14D      -0.528000
     10 C6           4.1160     0.2440    -0.5530 c6         1 14D       0.123700
     11 C7           4.1020     0.1310    -2.0980 c6         1 14D      -0.091400
     12 C8           2.6490    -0.0540    -2.6010 c6         1 14D      -0.074400
     13 C9           1.9460    -1.2320    -1.8810 c6         1 14D       0.160800
     14 N3           1.9520    -1.0540    -0.3990 n3         1 14D      -0.730600
     15 C10          3.3450    -0.9270     0.1280 c6         1 14D       0.155800
     16 C11          1.1810    -2.1020     0.3130 c3         1 14D       0.217100
     17 C12         -0.3000    -2.1240    -0.0590 ca         1 14D      -0.060300
     18 C13         -0.8710    -3.2610    -0.6660 ca         1 14D      -0.132000
     19 C14         -2.2330    -3.2730    -1.0150 ca         1 14D      -0.082000
     20 C15         -3.0340    -2.1490    -0.7540 ca         1 14D      -0.168000
     21 C16         -2.4730    -1.0140    -0.1360 ca         1 14D       0.118100
     22 C17         -1.1100    -1.0010     0.1990 ca         1 14D      -0.110000
     23 O3          -3.2330     0.1060     0.1160 os         1 14D      -0.253200
     24 C18         -4.5410     0.0430     0.5450 ca         1 14D       0.108100
     25 C19         -4.9550    -0.9300     1.4730 ca         1 14D      -0.115000
     26 C20         -6.2900    -0.9570     1.9090 ca         1 14D      -0.101000
     27 C21         -7.2110    -0.0130     1.4230 ca         1 14D      -0.071000
     28 C22         -6.8060     0.9720     0.4930 ca         1 14D      -0.181300
     29 C23         -5.4580     0.9960     0.0690 ca         1 14D      -0.076000
     30 C24         -7.8050     2.0130    -0.0250 c3         1 14D       0.357300
     31 F1          -7.5070     2.4340    -1.2750 f          1 14D      -0.112000
     32 F2          -9.0700     1.5350    -0.0710 f          1 14D      -0.112000
     33 F3          -7.8260     3.1090     0.7670 f          1 14D      -0.112000
     34 H1           7.6570     3.2070     2.7860 hc         1 14D       0.047033
     35 H2           8.2010     3.8080     1.2070 hc         1 14D       0.047033
     36 H3           6.5220     4.0420     1.7150 hc         1 14D       0.047033
     37 H4           4.9260     2.4440     0.5540 h4         1 14D       0.205000
     38 H5           8.3850    -0.8990     0.4690 hn         1 14D       0.342500
     39 H6           3.5120     1.1330    -0.3260 h1         1 14D       0.065700
     40 H7           4.5450     1.0300    -2.5470 hc         1 14D       0.061700
     41 H8           4.7110    -0.7210    -2.4250 hc         1 14D       0.061700
     42 H9           2.0770     0.8690    -2.4310 hc         1 14D       0.052200
     43 H10          2.6480    -0.2270    -3.6850 hc         1 14D       0.052200
     44 H11          0.9150    -1.2980    -2.2590 h1         1 14D       0.042200
     45 H12          2.4490    -2.1720    -2.1540 h1         1 14D       0.042200
     46 H14          3.8870    -1.8700    -0.0290 h1         1 14D       0.052200
     47 H15          3.3260    -0.7440     1.2120 h1         1 14D       0.052200
     48 H16          1.6190    -3.0900     0.1150 h1         1 14D       0.043700
     49 H17          1.2480    -1.9380     1.3980 h1         1 14D       0.043700
     50 H18         -0.2570    -4.1350    -0.8740 ha         1 14D       0.116000
     51 H19         -2.6650    -4.1510    -1.4900 ha         1 14D       0.116000
     52 H20         -4.0840    -2.1590    -1.0360 ha         1 14D       0.126000
     53 H21         -0.6790    -0.1160     0.6590 ha         1 14D       0.143000
     54 H22         -4.2450    -1.6570     1.8620 ha         1 14D       0.133000
     55 H23         -6.6110    -1.7080     2.6280 ha         1 14D       0.124000
     56 H24         -8.2390    -0.0460     1.7780 ha         1 14D       0.135000
     57 H25         -5.1130     1.7510    -0.6330 ha         1 14D       0.144000
@<TRIPOS>BOND
     1     1     2 1   
     2     1    34 1   
     3     1    35 1   
     4     1    36 1   
     5     2     3 2   
     6     2     8 1   
     7     3     4 1   
     8     3    37 1   
     9     4     5 1   
    10     4    10 1   
    11     5     6 2   
    12     5     7 1   
    13     7     8 1   
    14     7    38 1   
    15     8     9 2   
    16    10    11 1   
    17    10    15 1   
    18    10    39 1   
    19    11    12 1   
    20    11    40 1   
    21    11    41 1   
    22    12    13 1   
    23    12    42 1   
    24    12    43 1   
    25    13    14 1   
    26    13    44 1   
    27    13    45 1   
    28    14    15 1   
    29    14    16 1   
    30    15    46 1   
    31    15    47 1   
    32    16    17 1   
    33    16    48 1   
    34    16    49 1   
    35    17    18 ar  
    36    17    22 ar  
    37    18    19 ar  
    38    18    50 1   
    39    19    20 ar  
    40    19    51 1   
    41    20    21 ar  
    42    20    52 1   
    43    21    22 ar  
    44    21    23 1   
    45    22    53 1   
    46    23    24 1   
    47    24    25 ar  
    48    24    29 ar  
    49    25    26 ar  
    50    25    54 1   
    51    26    27 ar  
    52    26    55 1   
    53    27    28 ar  
    54    27    56 1   
    55    28    29 ar  
    56    28    30 1   
    57    29    57 1   
    58    30    31 1   
    59    30    32 1   
    60    30    33 1   
@<TRIPOS>SUBSTRUCTURE
     1 14D         1 TEMP              0 ****  ****    0 ROOT
