@<TRIPOS>MOLECULE
14F
   24    24     1     0     0
SMALL
bcc


@<TRIPOS>ATOM
      1 CAA          3.4480     1.8500    -0.0110 c3         1 14F       0.132700
      2 CAB          1.4510    -3.1730    -0.0800 c3         1 14F       0.130700
      3 OAD         -3.0630    -1.4580    -0.0040 o          1 14F      -0.835800
      4 OAE         -3.5380     0.7070    -0.0840 o          1 14F      -0.835800
      5 CAF          0.6650     1.5340     0.0330 ca         1 14F      -0.294000
      6 CAG         -0.3510    -1.0180    -0.0180 ca         1 14F      -0.112000
      7 OAH          2.8730     0.5600    -0.0310 os         1 14F      -0.312900
      8 CAK         -0.7340     1.3600     0.0510 ca         1 14F       0.189600
      9 CAL          1.5310     0.4600    -0.0110 ca         1 14F       0.123100
     10 CAM          1.0140    -0.8510    -0.0300 ca         1 14F       0.016100
     11 CAN         -1.2540     0.0570     0.0140 ca         1 14F      -0.202600
     12 HAA          3.1550     2.4410    -0.8830 h1         1 14F       0.024367
     13 HAAA         3.1790     2.4030     0.8930 h1         1 14F       0.024367
     14 HAAB         4.5260     1.7100    -0.0280 h1         1 14F       0.024367
     15 HAB          2.3210    -3.8250    -0.1070 h1         1 14F       0.026033
     16 HABA         0.8630    -3.4110     0.8130 h1         1 14F       0.026033
     17 HABB         0.8340    -3.3760    -0.9610 h1         1 14F       0.026033
     18 HNAC        -1.1510     3.3270    -0.2280 hn         1 14F       0.409300
     19 HNAA        -2.4990     2.2920    -0.0540 hn         1 14F       0.409300
     20 HAF          1.0510     2.5460     0.0620 ha         1 14F       0.111000
     21 HAG         -0.7790    -2.0120    -0.0390 ha         1 14F       0.156000
     22 OAI          1.9340    -1.8510    -0.0620 os         1 14F      -0.321900
     23 CAJ         -2.7340    -0.2580    -0.0250 c          1 14F       0.933200
     24 NAC         -1.5280     2.4780     0.1590 nv         1 14F      -0.846200
@<TRIPOS>BOND
     1     1     7 1   
     2     1    12 1   
     3     1    13 1   
     4     1    14 1   
     5     2    15 1   
     6     2    16 1   
     7     2    17 1   
     8     2    22 1   
     9     3    23 1   
    10     4    23 1   
    11     5     8 ar  
    12     5     9 ar  
    13     5    20 1   
    14     6    10 ar  
    15     6    11 ar  
    16     6    21 1   
    17     7     9 1   
    18     8    11 ar  
    19     8    24 1   
    20     9    10 ar  
    21    10    22 1   
    22    11    23 1   
    23    18    24 1   
    24    19    24 1   
@<TRIPOS>SUBSTRUCTURE
     1 14F         1 TEMP              0 ****  ****    0 ROOT
