@<TRIPOS>MOLECULE
14F
   24    24     1     0     0
SMALL
No Charge or Current Charge


@<TRIPOS>ATOM
      1 CAA          3.5160     1.9320     0.0170 c3         1 14F       0.155900
      2 CAB          1.4660    -3.2900    -0.1370 c3         1 14F       0.153900
      3 OAD         -3.1710    -1.1900     0.6360 o          1 14F      -0.730500
      4 OAE         -3.5080     0.5400    -0.5940 o          1 14F      -0.730500
      5 CAF          0.6400     1.5570     0.0450 ca         1 14F      -0.276000
      6 CAG         -0.3900    -1.0530    -0.0330 ca         1 14F      -0.094000
      7 OAH          2.8990     0.6340    -0.0210 os         1 14F      -0.336100
      8 CAK         -0.7440     1.3510     0.0570 ca         1 14F       0.328000
      9 CAL          1.5250     0.4600    -0.0080 ca         1 14F       0.123100
     10 CAM          1.0090    -0.8550    -0.0470 ca         1 14F       0.016100
     11 CAN         -1.2780     0.0470     0.0140 ca         1 14F      -0.202600
     12 HAA          3.2130     2.5330    -0.8510 h1         1 14F       0.024367
     13 HAAA         3.2390     2.4690     0.9330 h1         1 14F       0.024367
     14 HAAB         4.6080     1.8340    -0.0030 h1         1 14F       0.024367
     15 HAB          2.3340    -3.9600    -0.1730 h1         1 14F       0.026033
     16 HABA         0.8790    -3.5400     0.7560 h1         1 14F       0.026033
     17 HABB         0.8530    -3.4800    -1.0280 h1         1 14F       0.026033
     18 HNAC        -1.1460     3.3550    -0.1210 hn         1 14F       0.464500
     19 HNAA        -2.5230     2.3010    -0.1430 hn         1 14F       0.464500
     20 HAF          1.0160     2.5740     0.0800 ha         1 14F       0.093000
     21 HAG         -0.8080    -2.0560    -0.0650 ha         1 14F       0.138000
     22 OAI          1.8980    -1.9180    -0.0970 os         1 14F      -0.345100
     23 CAJ         -2.7670    -0.2060     0.0320 c          1 14F       0.722600
     24 NAC         -1.5460     2.4510     0.1170 nv         1 14F      -1.095000
@<TRIPOS>BOND
     1     1     7 1   
     2     1    12 1   
     3     1    13 1   
     4     1    14 1   
     5     2    15 1   
     6     2    16 1   
     7     2    17 1   
     8     2    22 1   
     9     3    23 1   
    10     4    23 1   
    11     5     8 ar  
    12     5     9 ar  
    13     5    20 1   
    14     6    10 ar  
    15     6    11 ar  
    16     6    21 1   
    17     7     9 1   
    18     8    11 ar  
    19     8    24 1   
    20     9    10 ar  
    21    10    22 1   
    22    11    23 1   
    23    18    24 1   
    24    19    24 1   
@<TRIPOS>SUBSTRUCTURE
     1 14F         1 TEMP              0 ****  ****    0 ROOT
