@<TRIPOS>MOLECULE
14H
   69    69     1     0     0
SMALL
bcc


@<TRIPOS>ATOM
      1 O21          2.3570    -1.4010     1.7950 o          1 14H      -0.603100
      2 C21          2.3270    -0.9640     0.6520 c          1 14H       0.668100
      3 N2           3.3500    -1.0890    -0.2130 ns         1 14H      -0.572900
      4 C2           4.5880    -1.7860     0.0660 c3         1 14H       0.115700
      5 C1           4.6340    -3.1250    -0.6560 c3         1 14H       0.117400
      6 O1           4.6010    -2.8980    -2.0460 oh         1 14H      -0.606800
      7 C3           5.7900    -0.9080    -0.2810 c3         1 14H      -0.121400
      8 C4           5.9070     0.3450     0.5880 c3         1 14H       0.194400
      9 C5           7.0560     1.2070     0.1040 ca         1 14H      -0.111300
     10 C6           6.8680     2.0440    -0.9940 ca         1 14H      -0.119500
     11 C7           7.9080     2.8190    -1.4850 ca         1 14H      -0.126500
     12 C8           9.1580     2.7690    -0.8810 ca         1 14H      -0.127000
     13 C9           9.3550     1.9390     0.2130 ca         1 14H      -0.126500
     14 C10          8.3100     1.1650     0.7040 ca         1 14H      -0.119500
     15 O4           5.9970     0.0320     1.9570 oh         1 14H      -0.578800
     16 C22          1.1300    -0.2120     0.1110 c3         1 14H      -0.157400
     17 C23         -0.1970    -0.7310     0.6490 c3         1 14H      -0.065400
     18 C24         -1.3870     0.0080     0.0520 c3         1 14H      -0.076400
     19 C25         -2.7250    -0.4910     0.5810 c3         1 14H      -0.074400
     20 C26         -3.9190     0.2160    -0.0460 c3         1 14H      -0.074400
     21 C27         -5.2610    -0.2810     0.4760 c3         1 14H      -0.074400
     22 C28         -6.4510     0.4160    -0.1700 c3         1 14H      -0.074400
     23 C29         -7.7970    -0.0780     0.3440 c3         1 14H      -0.074400
     24 C30         -8.9820     0.6180    -0.3140 c3         1 14H      -0.074400
     25 C31        -10.3320     0.1260     0.1920 c3         1 14H      -0.074400
     26 C32        -11.5120     0.8240    -0.4720 c3         1 14H      -0.075400
     27 C33        -12.8650     0.3350     0.0290 c3         1 14H      -0.074400
     28 C34        -14.0360     1.0390    -0.6420 c3         1 14H      -0.088100
     29 HN2          3.2110    -0.7650    -1.1570 hn         1 14H       0.316500
     30 H2           4.6020    -2.0050     1.1340 h1         1 14H       0.092700
     31 H1           5.5450    -3.6550    -0.3490 h1         1 14H       0.030200
     32 H1A          3.7810    -3.7300    -0.3250 h1         1 14H       0.030200
     33 HO1          4.5380    -3.7480    -2.4900 ho         1 14H       0.407000
     34 H3           6.7050    -1.5020    -0.1740 hc         1 14H       0.059200
     35 H3A          5.7490    -0.6090    -1.3310 hc         1 14H       0.059200
     36 H4           4.9860     0.9280     0.4800 h1         1 14H       0.081700
     37 H6           5.8930     2.0960    -1.4670 ha         1 14H       0.128000
     38 H7           7.7420     3.4670    -2.3360 ha         1 14H       0.130000
     39 H8           9.9700     3.3780    -1.2580 ha         1 14H       0.131000
     40 H9          10.3240     1.8950     0.6930 ha         1 14H       0.130000
     41 H10          8.4860     0.5340     1.5660 ha         1 14H       0.128000
     42 HO4          6.6100    -0.7010     2.0740 ho         1 14H       0.398000
     43 H22          1.2500     0.8420     0.3830 hc         1 14H       0.055200
     44 H22A         1.1260    -0.2410    -0.9820 hc         1 14H       0.055200
     45 H23         -0.2900    -1.7990     0.4300 hc         1 14H       0.053700
     46 H23A        -0.2160    -0.6370     1.7370 hc         1 14H       0.053700
     47 H24         -1.2920     1.0800     0.2540 hc         1 14H       0.035700
     48 H24A        -1.3680    -0.0960    -1.0390 hc         1 14H       0.035700
     49 H25         -2.8070    -1.5690     0.4010 hc         1 14H       0.040200
     50 H25A        -2.7570    -0.3640     1.6690 hc         1 14H       0.040200
     51 H26         -3.8370     1.2940     0.1310 hc         1 14H       0.036700
     52 H26A        -3.8830     0.0870    -1.1340 hc         1 14H       0.036700
     53 H27         -5.3380    -1.3610     0.3070 hc         1 14H       0.038200
     54 H27A        -5.3030    -0.1420     1.5620 hc         1 14H       0.038200
     55 H28         -6.3730     1.4960    -0.0020 hc         1 14H       0.036700
     56 H28A        -6.4050     0.2780    -1.2560 hc         1 14H       0.036700
     57 H29         -7.8740    -1.1590     0.1780 hc         1 14H       0.037200
     58 H29A        -7.8480     0.0650     1.4290 hc         1 14H       0.037200
     59 H30         -8.9040     1.6990    -0.1480 hc         1 14H       0.036700
     60 H30A        -8.9280     0.4760    -1.3990 hc         1 14H       0.036700
     61 H31        -10.4100    -0.9540     0.0280 hc         1 14H       0.036700
     62 H31A       -10.3890     0.2710     1.2770 hc         1 14H       0.036700
     63 H32        -11.4340     1.9050    -0.3070 hc         1 14H       0.036700
     64 H32A       -11.4540     0.6810    -1.5570 hc         1 14H       0.036700
     65 H33        -12.9420    -0.7450    -0.1360 hc         1 14H       0.036700
     66 H33A       -12.9230     0.4790     1.1130 hc         1 14H       0.036700
     67 H34        -14.0020     2.1160    -0.4660 hc         1 14H       0.031367
     68 H34A       -14.0220     0.8840    -1.7230 hc         1 14H       0.031367
     69 H34B       -14.9930     0.6730    -0.2690 hc         1 14H       0.031367
@<TRIPOS>BOND
     1     1     2 2   
     2     2     3 1   
     3     2    16 1   
     4     3     4 1   
     5     3    29 1   
     6     4     5 1   
     7     4     7 1   
     8     4    30 1   
     9     5     6 1   
    10     5    31 1   
    11     5    32 1   
    12     6    33 1   
    13     7     8 1   
    14     7    34 1   
    15     7    35 1   
    16     8     9 1   
    17     8    15 1   
    18     8    36 1   
    19     9    10 ar  
    20     9    14 ar  
    21    10    11 ar  
    22    10    37 1   
    23    11    12 ar  
    24    11    38 1   
    25    12    13 ar  
    26    12    39 1   
    27    13    14 ar  
    28    13    40 1   
    29    14    41 1   
    30    15    42 1   
    31    16    17 1   
    32    16    43 1   
    33    16    44 1   
    34    17    18 1   
    35    17    45 1   
    36    17    46 1   
    37    18    19 1   
    38    18    47 1   
    39    18    48 1   
    40    19    20 1   
    41    19    49 1   
    42    19    50 1   
    43    20    21 1   
    44    20    51 1   
    45    20    52 1   
    46    21    22 1   
    47    21    53 1   
    48    21    54 1   
    49    22    23 1   
    50    22    55 1   
    51    22    56 1   
    52    23    24 1   
    53    23    57 1   
    54    23    58 1   
    55    24    25 1   
    56    24    59 1   
    57    24    60 1   
    58    25    26 1   
    59    25    61 1   
    60    25    62 1   
    61    26    27 1   
    62    26    63 1   
    63    26    64 1   
    64    27    28 1   
    65    27    65 1   
    66    27    66 1   
    67    28    67 1   
    68    28    68 1   
    69    28    69 1   
@<TRIPOS>SUBSTRUCTURE
     1 14H         1 TEMP              0 ****  ****    0 ROOT
