@<TRIPOS>MOLECULE
14H
   69    69     1     0     0
SMALL
No Charge or Current Charge


@<TRIPOS>ATOM
      1 O21          2.6060    -1.1920     2.8180 o          1 14H      -0.603100
      2 C21          2.4230    -0.6400     1.7420 c          1 14H       0.601100
      3 N2           3.2940    -0.7750     0.6870 ns         1 14H      -0.505900
      4 C2           4.4820    -1.6410     0.6850 c3         1 14H       0.115700
      5 C1           4.1210    -3.0830     0.2240 c3         1 14H       0.140600
      6 O1           3.5770    -3.0900    -1.1090 oh         1 14H      -0.669000
      7 C3           5.6260    -1.0100    -0.1510 c3         1 14H      -0.121400
      8 C4           6.1470     0.3390     0.4030 c3         1 14H       0.217600
      9 C5           7.0950     1.0560    -0.5590 ca         1 14H      -0.111300
     10 C6           6.8640     2.4080    -0.8890 ca         1 14H      -0.101500
     11 C7           7.7260     3.0850    -1.7690 ca         1 14H      -0.108500
     12 C8           8.8280     2.4180    -2.3270 ca         1 14H      -0.109000
     13 C9           9.0700     1.0740    -2.0030 ca         1 14H      -0.108500
     14 C10          8.2100     0.3950    -1.1220 ca         1 14H      -0.101500
     15 O4           6.8240     0.1140     1.6420 oh         1 14H      -0.641000
     16 C22          1.2290     0.2830     1.4810 c3         1 14H      -0.157400
     17 C23         -0.0800    -0.5220     1.3010 c3         1 14H      -0.065400
     18 C24         -1.3070     0.3760     1.0290 c3         1 14H      -0.076400
     19 C25         -2.6150    -0.4270     0.8500 c3         1 14H      -0.074400
     20 C26         -3.8420     0.4710     0.5770 c3         1 14H      -0.074400
     21 C27         -5.1490    -0.3310     0.3990 c3         1 14H      -0.074400
     22 C28         -6.3760     0.5660     0.1260 c3         1 14H      -0.074400
     23 C29         -7.6840    -0.2360    -0.0520 c3         1 14H      -0.074400
     24 C30         -8.9110     0.6620    -0.3250 c3         1 14H      -0.074400
     25 C31        -10.2190    -0.1400    -0.5030 c3         1 14H      -0.074400
     26 C32        -11.4460     0.7570    -0.7760 c3         1 14H      -0.075400
     27 C33        -12.7540    -0.0450    -0.9540 c3         1 14H      -0.074400
     28 C34        -13.9780     0.8500    -1.2260 c3         1 14H      -0.088100
     29 HN2          3.0380    -0.3150    -0.1770 hn         1 14H       0.316500
     30 H2           4.8460    -1.7260     1.7180 h1         1 14H       0.092700
     31 H1           5.0230    -3.7080     0.2700 h1         1 14H       0.030200
     32 H1A          3.3940    -3.5060     0.9290 h1         1 14H       0.030200
     33 HO1          3.3550    -4.0240    -1.3240 ho         1 14H       0.446000
     34 H3           6.4550    -1.7250    -0.2110 hc         1 14H       0.059200
     35 H3A          5.2730    -0.8550    -1.1780 hc         1 14H       0.059200
     36 H4           5.2780     0.9910     0.5720 h1         1 14H       0.081700
     37 H6           6.0150     2.9380    -0.4630 ha         1 14H       0.110000
     38 H7           7.5380     4.1280    -2.0180 ha         1 14H       0.112000
     39 H8           9.4950     2.9430    -3.0090 ha         1 14H       0.113000
     40 H9           9.9250     0.5570    -2.4330 ha         1 14H       0.112000
     41 H10          8.4160    -0.6450    -0.8810 ha         1 14H       0.110000
     42 HO4          7.7720    -0.0020     1.4190 ho         1 14H       0.437000
     43 H22          1.1090     0.9540     2.3390 hc         1 14H       0.055200
     44 H22A         1.4010     0.8710     0.5710 hc         1 14H       0.055200
     45 H23          0.0430    -1.2280     0.4710 hc         1 14H       0.053700
     46 H23A        -0.2640    -1.1190     2.2040 hc         1 14H       0.053700
     47 H24         -1.4290     1.0820     1.8600 hc         1 14H       0.035700
     48 H24A        -1.1240     0.9720     0.1260 hc         1 14H       0.035700
     49 H25         -2.4930    -1.1330     0.0190 hc         1 14H       0.040200
     50 H25A        -2.7980    -1.0230     1.7530 hc         1 14H       0.040200
     51 H26         -3.9630     1.1770     1.4080 hc         1 14H       0.036700
     52 H26A        -3.6580     1.0670    -0.3260 hc         1 14H       0.036700
     53 H27         -5.0280    -1.0370    -0.4320 hc         1 14H       0.038200
     54 H27A        -5.3330    -0.9270     1.3020 hc         1 14H       0.038200
     55 H28         -6.4980     1.2730     0.9570 hc         1 14H       0.036700
     56 H28A        -6.1930     1.1620    -0.7770 hc         1 14H       0.036700
     57 H29         -7.5630    -0.9420    -0.8830 hc         1 14H       0.037200
     58 H29A        -7.8670    -0.8310     0.8510 hc         1 14H       0.037200
     59 H30         -9.0320     1.3680     0.5060 hc         1 14H       0.036700
     60 H30A        -8.7280     1.2570    -1.2280 hc         1 14H       0.036700
     61 H31        -10.0980    -0.8470    -1.3340 hc         1 14H       0.036700
     62 H31A       -10.4020    -0.7360     0.4000 hc         1 14H       0.036700
     63 H32        -11.5670     1.4640     0.0550 hc         1 14H       0.036700
     64 H32A       -11.2630     1.3530    -1.6790 hc         1 14H       0.036700
     65 H33        -12.6370    -0.7510    -1.7850 hc         1 14H       0.036700
     66 H33A       -12.9410    -0.6400    -0.0520 hc         1 14H       0.036700
     67 H34        -14.1430     1.5460    -0.3940 hc         1 14H       0.031367
     68 H34A       -13.8360     1.4340    -2.1430 hc         1 14H       0.031367
     69 H34B       -14.8800     0.2380    -1.3450 hc         1 14H       0.031367
@<TRIPOS>BOND
     1     1     2 2   
     2     2     3 1   
     3     2    16 1   
     4     3     4 1   
     5     3    29 1   
     6     4     5 1   
     7     4     7 1   
     8     4    30 1   
     9     5     6 1   
    10     5    31 1   
    11     5    32 1   
    12     6    33 1   
    13     7     8 1   
    14     7    34 1   
    15     7    35 1   
    16     8     9 1   
    17     8    15 1   
    18     8    36 1   
    19     9    10 ar  
    20     9    14 ar  
    21    10    11 ar  
    22    10    37 1   
    23    11    12 ar  
    24    11    38 1   
    25    12    13 ar  
    26    12    39 1   
    27    13    14 ar  
    28    13    40 1   
    29    14    41 1   
    30    15    42 1   
    31    16    17 1   
    32    16    43 1   
    33    16    44 1   
    34    17    18 1   
    35    17    45 1   
    36    17    46 1   
    37    18    19 1   
    38    18    47 1   
    39    18    48 1   
    40    19    20 1   
    41    19    49 1   
    42    19    50 1   
    43    20    21 1   
    44    20    51 1   
    45    20    52 1   
    46    21    22 1   
    47    21    53 1   
    48    21    54 1   
    49    22    23 1   
    50    22    55 1   
    51    22    56 1   
    52    23    24 1   
    53    23    57 1   
    54    23    58 1   
    55    24    25 1   
    56    24    59 1   
    57    24    60 1   
    58    25    26 1   
    59    25    61 1   
    60    25    62 1   
    61    26    27 1   
    62    26    63 1   
    63    26    64 1   
    64    27    28 1   
    65    27    65 1   
    66    27    66 1   
    67    28    67 1   
    68    28    68 1   
    69    28    69 1   
@<TRIPOS>SUBSTRUCTURE
     1 14H         1 TEMP              0 ****  ****    0 ROOT
