@<TRIPOS>MOLECULE
14I
   28    31     1     0     0
SMALL
No Charge or Current Charge


@<TRIPOS>ATOM
      1 CAA          1.2260    -3.3820     0.0100 ca         1 14I      -0.123000
      2 CAB          2.4640    -2.7130     0.0110 ca         1 14I      -0.103000
      3 CAC          2.4460    -1.3170     0.0120 ca         1 14I       0.010100
      4 CAD          1.2790    -0.5760     0.0110 ca         1 14I      -0.096800
      5 CAE          0.0170    -1.2200     0.0090 ca         1 14I       0.065000
      6 CAF          0.0110    -2.6520     0.0090 ca         1 14I      -0.082000
      7 CAG         -1.2390    -0.5650     0.0080 ca         1 14I      -0.096800
      8 CAH         -2.4130    -1.2970     0.0070 ca         1 14I       0.010100
      9 CAI         -2.4420    -2.6920     0.0060 ca         1 14I      -0.103000
     10 CAJ         -1.2100    -3.3710     0.0070 ca         1 14I      -0.123000
     11 CAK          1.6850     0.8250     0.0120 cc         1 14I      -0.246200
     12 CAL          3.0760     0.8070     0.0140 cd         1 14I      -0.030100
     13 OAM          3.5260    -0.4900     0.0130 os         1 14I      -0.145700
     14 CAN         -1.6330     0.8400     0.0090 cc         1 14I      -0.246200
     15 CAO         -3.0250     0.8330     0.0070 cd         1 14I      -0.030100
     16 OAP         -3.4860    -0.4600     0.0060 os         1 14I      -0.145700
     17 CAQ         -3.9440     2.0200     0.0060 c          1 14I       0.739200
     18 CAR          4.0060     1.9860     0.0150 c          1 14I       0.739200
     19 OAS          5.2150     1.7860     0.0160 o          1 14I      -0.704000
     20 OAT         -3.4530     3.1420     0.0070 o          1 14I      -0.704000
     21 OAU         -5.1550     1.8300     0.0050 o          1 14I      -0.704000
     22 OAV          3.5240     3.1120     0.0150 o          1 14I      -0.704000
     23 HAA          1.2100    -4.4690     0.0090 ha         1 14I       0.082000
     24 HAB          3.4020    -3.2630     0.0120 ha         1 14I       0.104000
     25 HAI         -3.3850    -3.2340     0.0050 ha         1 14I       0.104000
     26 HAJ         -1.2030    -4.4590     0.0070 ha         1 14I       0.082000
     27 HAK          1.0830     1.7260     0.0120 ha         1 14I       0.225000
     28 HAN         -1.0240     1.7350     0.0100 ha         1 14I       0.225000
@<TRIPOS>BOND
     1     1     2 ar  
     2     1     6 ar  
     3     1    23 1   
     4     2     3 ar  
     5     2    24 1   
     6     3     4 ar  
     7     3    13 1   
     8     4     5 ar  
     9     4    11 1   
    10     5     6 ar  
    11     5     7 ar  
    12     6    10 ar  
    13     7     8 ar  
    14     7    14 1   
    15     8     9 ar  
    16     8    16 1   
    17     9    10 ar  
    18     9    25 1   
    19    10    26 1   
    20    11    12 2   
    21    11    27 1   
    22    12    13 1   
    23    12    18 1   
    24    14    15 2   
    25    14    28 1   
    26    15    16 1   
    27    15    17 1   
    28    17    20 1   
    29    17    21 1   
    30    18    19 1   
    31    18    22 1   
@<TRIPOS>SUBSTRUCTURE
     1 14I         1 TEMP              0 ****  ****    0 ROOT
