@<TRIPOS>MOLECULE
14I
   28    31     1     0     0
SMALL
abcg2


@<TRIPOS>ATOM
      1 CAA          1.2390    -3.3110    -0.0030 ca         1 14I      -0.123000
      2 CAB          2.4540    -2.6820    -0.0110 ca         1 14I      -0.103000
      3 CAC          2.4350    -1.2820    -0.0040 ca         1 14I       0.010100
      4 CAD          1.2750    -0.5210     0.0080 ca         1 14I      -0.096800
      5 CAE          0.0170    -1.1710     0.0090 ca         1 14I       0.065000
      6 CAF          0.0110    -2.5920     0.0090 ca         1 14I      -0.082000
      7 CAG         -1.2350    -0.5110     0.0110 ca         1 14I      -0.096800
      8 CAH         -2.4010    -1.2620     0.0220 ca         1 14I       0.010100
      9 CAI         -2.4320    -2.6610     0.0290 ca         1 14I      -0.103000
     10 CAJ         -1.2230    -3.3010     0.0200 ca         1 14I      -0.123000
     11 CAK          1.7200     0.8380     0.0230 cc         1 14I      -0.246200
     12 CAL          3.0750     0.8000     0.0170 cd         1 14I      -0.030100
     13 OAM          3.5170    -0.4880    -0.0010 os         1 14I      -0.145700
     14 CAN         -1.6680     0.8530    -0.0030 cc         1 14I      -0.246200
     15 CAO         -3.0230     0.8260     0.0030 cd         1 14I      -0.030100
     16 OAP         -3.4770    -0.4580     0.0200 os         1 14I      -0.145700
     17 CAQ         -4.0330     1.9410    -0.0100 c          1 14I       0.739200
     18 CAR          4.0940     1.9060     0.0320 c          1 14I       0.739200
     19 OAS          5.2870     1.5620     0.0270 o          1 14I      -0.704000
     20 OAT         -3.5440     3.0840    -0.0270 o          1 14I      -0.704000
     21 OAU         -5.2290     1.6080    -0.0030 o          1 14I      -0.704000
     22 OAV          3.6150     3.0540     0.0490 o          1 14I      -0.704000
     23 HAA          1.1990    -4.3930    -0.0050 ha         1 14I       0.082000
     24 HAB          3.3820    -3.2380    -0.0210 ha         1 14I       0.104000
     25 HAI         -3.3650    -3.2090     0.0380 ha         1 14I       0.104000
     26 HAJ         -1.1920    -4.3830     0.0210 ha         1 14I       0.082000
     27 HAK          1.1200     1.7320     0.0440 ha         1 14I       0.225000
     28 HAN         -1.0610     1.7420    -0.0230 ha         1 14I       0.225000
@<TRIPOS>BOND
     1     1     2 ar  
     2     1     6 ar  
     3     1    23 1   
     4     2     3 ar  
     5     2    24 1   
     6     3     4 ar  
     7     3    13 1   
     8     4     5 ar  
     9     4    11 1   
    10     5     6 ar  
    11     5     7 ar  
    12     6    10 ar  
    13     7     8 ar  
    14     7    14 1   
    15     8     9 ar  
    16     8    16 1   
    17     9    10 ar  
    18     9    25 1   
    19    10    26 1   
    20    11    12 2   
    21    11    27 1   
    22    12    13 1   
    23    12    18 1   
    24    14    15 2   
    25    14    28 1   
    26    15    16 1   
    27    15    17 1   
    28    17    20 1   
    29    17    21 1   
    30    18    19 1   
    31    18    22 1   
@<TRIPOS>SUBSTRUCTURE
     1 14I         1 TEMP              0 ****  ****    0 ROOT
