@<TRIPOS>MOLECULE
14J
   11    11     1     0     0
SMALL
bcc


@<TRIPOS>ATOM
      1 C01          1.2910    -1.6510     0.0310 cc         1 14J      -0.303300
      2 C02          1.6590    -0.3440     0.0110 cd         1 14J       0.237200
      3 O03          0.5420     0.4340     0.0040 os         1 14J      -0.278800
      4 C04         -0.5100    -0.3870     0.0200 cd         1 14J       0.225900
      5 C05         -0.1330    -1.6880     0.0370 cc         1 14J      -0.249300
      6 BR1         -2.1880     0.3900     0.0150 br         1 14J      -0.170200
      7 C07          3.0040     0.3230    -0.0010 c          1 14J       0.840100
      8 O08          3.9680    -0.4620     0.0000 o          1 14J      -0.799300
      9 O09          3.0130     1.5650    -0.0100 o          1 14J      -0.799300
     10 H1           1.9580    -2.4970     0.0420 ha         1 14J       0.157000
     11 H2          -0.7800    -2.5490     0.0520 ha         1 14J       0.139000
@<TRIPOS>BOND
     1     1     2 2   
     2     1     5 1   
     3     1    10 1   
     4     2     3 1   
     5     2     7 1   
     6     3     4 1   
     7     4     5 2   
     8     4     6 1   
     9     5    11 1   
    10     7     8 1   
    11     7     9 1   
@<TRIPOS>SUBSTRUCTURE
     1 14J         1 TEMP              0 ****  ****    0 ROOT
