@<TRIPOS>MOLECULE
14J
   11    11     1     0     0
SMALL
No Charge or Current Charge


@<TRIPOS>ATOM
      1 C01          1.2860    -1.6180     0.0310 cc         1 14J      -0.220000
      2 C02          1.6290    -0.2860     0.0120 cd         1 14J       0.127500
      3 O03          0.5060     0.5220     0.0050 os         1 14J      -0.190000
      4 C04         -0.5440    -0.3650     0.0200 cd         1 14J       0.116200
      5 C05         -0.1220    -1.6650     0.0360 cc         1 14J      -0.166000
      6 Br1         -2.3160     0.2750     0.0180 br         1 14J      -0.170200
      7 C07          3.0230     0.2840    -0.0000 c          1 14J       0.629500
      8 O08          3.9770    -0.4850     0.0060 o          1 14J      -0.694000
      9 O09          3.1660     1.5010    -0.0170 o          1 14J      -0.694000
     10 H1           1.9570    -2.4710     0.0390 ha         1 14J       0.139000
     11 H2          -0.7370    -2.5590     0.0500 ha         1 14J       0.121000
@<TRIPOS>BOND
     1     1     2 2   
     2     1     5 1   
     3     1    10 1   
     4     2     3 1   
     5     2     7 1   
     6     3     4 1   
     7     4     5 2   
     8     4     6 1   
     9     5    11 1   
    10     7     8 1   
    11     7     9 1   
@<TRIPOS>SUBSTRUCTURE
     1 14J         1 TEMP              0 ****  ****    0 ROOT
