@<TRIPOS>MOLECULE
14K
   64    67     1     0     0
SMALL
bcc


@<TRIPOS>ATOM
      1 C15         -7.5500     4.0240    -0.8070 c3         1 14K       0.135700
      2 O14         -7.5460     2.6050    -0.8660 os         1 14K      -0.424100
      3 C11         -6.3900     1.9850    -0.6160 ca         1 14K       0.594600
      4 C12         -6.3720     0.5870    -0.6840 ca         1 14K       0.024600
      5 C13         -5.2160    -0.0920    -0.4370 ca         1 14K      -0.174000
      6 F16         -7.4960    -0.0710    -0.9900 f          1 14K      -0.124900
      7 N10         -5.3050     2.6450    -0.3160 nb         1 14K      -0.724000
      8 C9          -4.1570     2.0090    -0.0690 ca         1 14K       0.408200
      9 C8          -4.0460     0.6230    -0.1150 ca         1 14K       0.052300
     10 N7          -2.9090    -0.1380     0.1050 nu         1 14K      -0.737300
     11 C2          -1.6760     0.2210     0.5470 ca         1 14K       0.733200
     12 N1          -1.4580     1.4970     0.8450 nb         1 14K      -0.764000
     13 C6          -0.2690     1.8760     1.2860 ca         1 14K       0.485200
     14 C5           0.8030     1.0220     1.4740 ca         1 14K      -0.285600
     15 C25          2.1180     1.5060     2.0350 c3         1 14K       0.253800
     16 C36          2.2060     1.1070     3.5080 c3         1 14K      -0.092100
     17 N26          3.2160     0.9680     1.2380 n3         1 14K      -0.728600
     18 C31          4.5300     1.1590     1.8220 c6         1 14K       0.166800
     19 C30          5.5940     0.4650     0.9910 c6         1 14K       0.192800
     20 C27          3.2000     1.5090    -0.1090 c6         1 14K       0.166800
     21 C28          4.2300     0.8240    -0.9850 c6         1 14K       0.192800
     22 N29          5.5500     0.9780    -0.3760 n3         1 14K      -0.723500
     23 S32          6.8650     0.7180    -1.3400 s6         1 14K       1.228900
     24 C33          6.8830    -1.0170    -1.7400 c3         1 14K      -0.271300
     25 O35          6.6480     1.4630    -2.5710 o          1 14K      -0.601800
     26 O34          8.0480     1.0060    -0.5430 o          1 14K      -0.601800
     27 C4           0.5850    -0.3100     1.1550 ca         1 14K       0.018000
     28 C3          -0.6430    -0.7560     0.6870 cp         1 14K      -0.362800
     29 C17         -0.7960    -2.1870     0.3670 cp         1 14K       0.822500
     30 N22          0.2570    -2.9660     0.5400 nb         1 14K      -0.830000
     31 N18         -1.9760    -2.6240    -0.0760 nb         1 14K      -0.852000
     32 C19         -2.0600    -3.9270    -0.3510 ca         1 14K       0.751300
     33 C23         -3.3650    -4.4230    -0.8750 c3         1 14K      -0.145400
     34 N20         -1.0710    -4.7820    -0.2110 nb         1 14K      -0.817000
     35 C21          0.0810    -4.2550     0.2410 ca         1 14K       0.950900
     36 N24          1.1120    -5.0790     0.4000 nv         1 14K      -0.950500
     37 H1          -7.2830     4.3900     0.1850 h1         1 14K       0.047033
     38 H2          -6.8670     4.4610    -1.5370 h1         1 14K       0.047033
     39 H3          -8.5670     4.3280    -1.0400 h1         1 14K       0.047033
     40 H4          -5.2120    -1.1750    -0.4870 ha         1 14K       0.154000
     41 H5          -3.3070     2.6250     0.1740 h4         1 14K       0.058100
     42 H6          -2.9850    -1.1400    -0.0840 hn         1 14K       0.495800
     43 H7          -0.1620     2.9360     1.5030 h4         1 14K       0.018100
     44 H8           2.1150     2.6100     1.9920 h1         1 14K       0.029700
     45 H9           3.0380     1.5890     4.0210 hc         1 14K       0.043033
     46 H10          1.2930     1.4070     4.0200 hc         1 14K       0.043033
     47 H11          2.3120     0.0260     3.6160 hc         1 14K       0.043033
     48 H13          4.7890     2.2260     1.9260 h1         1 14K       0.048200
     49 H14          4.5680     0.7160     2.8150 h1         1 14K       0.048200
     50 H15          6.5680     0.6680     1.4300 h1         1 14K       0.059700
     51 H16          5.4210    -0.6180     1.0160 h1         1 14K       0.059700
     52 H17          2.2220     1.3450    -0.5610 h1         1 14K       0.048200
     53 H18          3.3850     2.5960    -0.1140 h1         1 14K       0.048200
     54 H19          3.9650    -0.2350    -1.0980 h1         1 14K       0.059700
     55 H20          4.2210     1.2860    -1.9700 h1         1 14K       0.059700
     56 H21          5.9790    -1.2790    -2.2850 h1         1 14K       0.099367
     57 H22          7.7530    -1.2050    -2.3670 h1         1 14K       0.099367
     58 H23          6.9560    -1.6020    -0.8270 h1         1 14K       0.099367
     59 H24          1.3930    -1.0220     1.2560 ha         1 14K       0.169000
     60 H25         -3.4520    -4.1680    -1.9330 hc         1 14K       0.065700
     61 H26         -3.4440    -5.5030    -0.7780 hc         1 14K       0.065700
     62 H27         -4.1960    -3.9470    -0.3570 hc         1 14K       0.065700
     63 H28          1.9890    -4.7380     0.7530 hn         1 14K       0.456300
     64 H29          1.0180    -6.0600     0.2000 hn         1 14K       0.456300
@<TRIPOS>BOND
     1     1     2 1   
     2     1    37 1   
     3     1    38 1   
     4     1    39 1   
     5     2     3 1   
     6     3     4 ar  
     7     3     7 ar  
     8     4     5 ar  
     9     4     6 1   
    10     5     9 ar  
    11     5    40 1   
    12     7     8 ar  
    13     8     9 ar  
    14     8    41 1   
    15     9    10 1   
    16    10    11 1   
    17    10    42 1   
    18    11    12 ar  
    19    11    28 ar  
    20    12    13 ar  
    21    13    14 ar  
    22    13    43 1   
    23    14    15 1   
    24    14    27 ar  
    25    15    16 1   
    26    15    17 1   
    27    15    44 1   
    28    16    45 1   
    29    16    46 1   
    30    16    47 1   
    31    17    18 1   
    32    17    20 1   
    33    18    19 1   
    34    18    48 1   
    35    18    49 1   
    36    19    22 1   
    37    19    50 1   
    38    19    51 1   
    39    20    21 1   
    40    20    52 1   
    41    20    53 1   
    42    21    22 1   
    43    21    54 1   
    44    21    55 1   
    45    22    23 1   
    46    23    24 1   
    47    23    25 2   
    48    23    26 2   
    49    24    56 1   
    50    24    57 1   
    51    24    58 1   
    52    27    28 ar  
    53    27    59 1   
    54    28    29 1   
    55    29    30 ar  
    56    29    31 ar  
    57    30    35 ar  
    58    31    32 ar  
    59    32    33 1   
    60    32    34 ar  
    61    33    60 1   
    62    33    61 1   
    63    33    62 1   
    64    34    35 ar  
    65    35    36 1   
    66    36    63 1   
    67    36    64 1   
@<TRIPOS>SUBSTRUCTURE
     1 14K         1 TEMP              0 ****  ****    0 ROOT
