@<TRIPOS>MOLECULE
14K
   64    67     1     0     0
SMALL
No Charge or Current Charge


@<TRIPOS>ATOM
      1 C15         -7.2130     4.3450    -1.5410 c3         1 14K       0.158900
      2 O14         -7.3270     2.9470    -1.2050 os         1 14K      -0.447300
      3 C11         -6.2210     2.1990    -0.8550 ca         1 14K       0.529300
      4 C12         -6.4010     0.8280    -0.5350 ca         1 14K       0.125000
      5 C13         -5.2930     0.0410    -0.1750 ca         1 14K      -0.156000
      6 F16         -7.6310     0.2600    -0.5710 f          1 14K      -0.160000
      7 N10         -5.0020     2.7920    -0.8340 nb         1 14K      -0.724000
      8 C9          -3.9340     2.0240    -0.4800 ca         1 14K       0.342900
      9 C8          -4.0220     0.6390    -0.1310 ca         1 14K       0.256000
     10 N7          -2.9270    -0.1790     0.2190 nu         1 14K      -0.930900
     11 C2          -1.6630     0.0360     0.7170 ca         1 14K       0.667900
     12 N1          -1.4710     1.2970     1.1060 nb         1 14K      -0.764000
     13 C6          -0.2680     1.6310     1.6070 ca         1 14K       0.419900
     14 C5           0.7850     0.7200     1.7390 ca         1 14K      -0.220300
     15 C25          2.1210     1.1680     2.3150 c3         1 14K       0.253800
     16 C36          2.2830     0.5620     3.7280 c3         1 14K      -0.092100
     17 N26          3.2420     0.8450     1.3910 n3         1 14K      -0.728600
     18 C31          4.5930     1.2470     1.9050 c6         1 14K       0.166800
     19 C30          5.7470     0.8670     0.9270 c6         1 14K       0.192800
     20 C27          3.0520     1.4190     0.0160 c6         1 14K       0.166800
     21 C28          4.2040     1.0340    -0.9610 c6         1 14K       0.192800
     22 N29          5.5400     1.4310    -0.4360 n3         1 14K      -0.723500
     23 S32          6.8530     1.2140    -1.5280 s6         1 14K       1.198100
     24 C33          6.9650    -0.5520    -1.7830 c3         1 14K      -0.382100
     25 O35          6.4610     1.8580    -2.7860 o          1 14K      -0.531000
     26 O34          8.0570     1.6780    -0.8320 o          1 14K      -0.531000
     27 C4           0.5720    -0.6070     1.3390 ca         1 14K       0.036000
     28 C3          -0.6890    -0.9920     0.8150 cp         1 14K      -0.297500
     29 C17         -0.9140    -2.4190     0.3900 cp         1 14K       0.296500
     30 N22          0.1730    -3.1610     0.0880 nb         1 14K      -0.304000
     31 N18         -2.1720    -2.9120     0.3460 nb         1 14K      -0.326000
     32 C19         -2.2980    -4.2040    -0.0210 ca         1 14K       0.225300
     33 C23         -3.7010    -4.7760    -0.0870 c3         1 14K      -0.145400
     34 N20         -1.2700    -5.0130    -0.3430 nb         1 14K      -0.291000
     35 C21         -0.0710    -4.4270    -0.2670 ca         1 14K       0.424900
     36 N24          1.0010    -5.1900    -0.5740 nv         1 14K      -1.060900
     37 H1          -6.8060     4.9190    -0.6990 h1         1 14K       0.047033
     38 H2          -6.5570     4.4870    -2.4100 h1         1 14K       0.047033
     39 H3          -8.1980     4.7590    -1.7890 h1         1 14K       0.047033
     40 H4          -5.4280    -1.0080     0.0700 ha         1 14K       0.136000
     41 H5          -2.9730     2.5340    -0.5040 h4         1 14K       0.058100
     42 H6          -3.1100    -1.1790     0.1600 hn         1 14K       0.551000
     43 H7          -0.1470     2.6710     1.9110 h4         1 14K       0.018100
     44 H8           2.0800     2.2590     2.4420 h1         1 14K       0.029700
     45 H9           3.1090     1.0330     4.2720 hc         1 14K       0.043033
     46 H10          1.3720     0.7210     4.3170 hc         1 14K       0.043033
     47 H11          2.4710    -0.5170     3.6720 hc         1 14K       0.043033
     48 H13          4.6250     2.3330     2.0770 h1         1 14K       0.048200
     49 H14          4.8080     0.7610     2.8670 h1         1 14K       0.048200
     50 H15          6.6910     1.2300     1.3590 h1         1 14K       0.059700
     51 H16          5.8130    -0.2300     0.8850 h1         1 14K       0.059700
     52 H17          2.1090     1.0720    -0.4290 h1         1 14K       0.048200
     53 H18          2.9950     2.5160     0.0700 h1         1 14K       0.048200
     54 H19          4.1620    -0.0520    -1.1300 h1         1 14K       0.059700
     55 H20          4.0050     1.5190    -1.9280 h1         1 14K       0.059700
     56 H21          6.0180    -0.8930    -2.2130 h1         1 14K       0.099367
     57 H22          7.7940    -0.7260    -2.4750 h1         1 14K       0.099367
     58 H23          7.1590    -1.0220    -0.8140 h1         1 14K       0.099367
     59 H24          1.3830    -1.3270     1.4440 ha         1 14K       0.151000
     60 H25         -4.2160    -4.4380    -0.9930 hc         1 14K       0.065700
     61 H26         -3.6900    -5.8720    -0.0970 hc         1 14K       0.065700
     62 H27         -4.2970    -4.4600     0.7770 hc         1 14K       0.065700
     63 H28          1.9210    -4.8540    -0.2990 hn         1 14K       0.511500
     64 H29          0.8810    -6.1990    -0.6100 hn         1 14K       0.511500
@<TRIPOS>BOND
     1     1     2 1   
     2     1    37 1   
     3     1    38 1   
     4     1    39 1   
     5     2     3 1   
     6     3     4 ar  
     7     3     7 ar  
     8     4     5 ar  
     9     4     6 1   
    10     5     9 ar  
    11     5    40 1   
    12     7     8 ar  
    13     8     9 ar  
    14     8    41 1   
    15     9    10 1   
    16    10    11 1   
    17    10    42 1   
    18    11    12 ar  
    19    11    28 ar  
    20    12    13 ar  
    21    13    14 ar  
    22    13    43 1   
    23    14    15 1   
    24    14    27 ar  
    25    15    16 1   
    26    15    17 1   
    27    15    44 1   
    28    16    45 1   
    29    16    46 1   
    30    16    47 1   
    31    17    18 1   
    32    17    20 1   
    33    18    19 1   
    34    18    48 1   
    35    18    49 1   
    36    19    22 1   
    37    19    50 1   
    38    19    51 1   
    39    20    21 1   
    40    20    52 1   
    41    20    53 1   
    42    21    22 1   
    43    21    54 1   
    44    21    55 1   
    45    22    23 1   
    46    23    24 1   
    47    23    25 2   
    48    23    26 2   
    49    24    56 1   
    50    24    57 1   
    51    24    58 1   
    52    27    28 ar  
    53    27    59 1   
    54    28    29 1   
    55    29    30 ar  
    56    29    31 ar  
    57    30    35 ar  
    58    31    32 ar  
    59    32    33 1   
    60    32    34 ar  
    61    33    60 1   
    62    33    61 1   
    63    33    62 1   
    64    34    35 ar  
    65    35    36 1   
    66    36    63 1   
    67    36    64 1   
@<TRIPOS>SUBSTRUCTURE
     1 14K         1 TEMP              0 ****  ****    0 ROOT
