@<TRIPOS>MOLECULE
14M
   61    63     1     0     0
SMALL
No Charge or Current Charge


@<TRIPOS>ATOM
      1 C1           4.9360    -1.4250    -2.3060 c          1 14M       0.713000
      2 C2           3.9520    -0.8250    -1.2850 c3         1 14M      -0.204400
      3 C3           4.6340    -0.4970     0.0910 c6         1 14M      -0.057700
      4 C7           5.1540    -1.7490     0.8590 c6         1 14M      -0.062400
      5 C8           1.2900    -0.4340     1.0300 ca         1 14M       0.691900
      6 C9          -0.3910     0.9880     0.3350 ca         1 14M       0.585300
      7 C10         -1.2390    -0.0910     0.0030 ca         1 14M      -0.294600
      8 C11         -0.7650    -1.4000     0.2150 ca         1 14M       0.001000
      9 C12          0.5210    -1.5650     0.7340 ca         1 14M      -0.272000
     10 C13         -2.6020     0.1260    -0.5750 c          1 14M       0.632700
     11 C14         -4.9240    -0.8710    -0.7040 c6         1 14M       0.113700
     12 C15         -5.4670    -2.3220    -0.6340 c6         1 14M      -0.090900
     13 C16         -6.9510    -2.3930    -1.0750 c6         1 14M      -0.071400
     14 C19         -5.8070     0.0620     0.1680 c6         1 14M      -0.090900
     15 C20          0.6190     3.6870     0.5570 c3         1 14M       0.025600
     16 C21          0.3290     5.1960     0.4450 c3         1 14M      -0.066400
     17 C22          1.5710     6.0660     0.7170 c3         1 14M      -0.089100
     18 S1          -0.9140     2.7050     0.2170 ss         1 14M      -0.309300
     19 O1           5.6250    -0.6560    -2.9580 o          1 14M      -0.740500
     20 O2           5.0100    -2.6410    -2.3990 o          1 14M      -0.740500
     21 O3          -2.8720     1.0290    -1.3510 o          1 14M      -0.607100
     22 N1           2.5890    -0.5120     1.5560 nh         1 14M      -0.760300
     23 N2           0.8420     0.8100     0.8420 nb         1 14M      -0.794000
     24 N3          -3.5300    -0.8350    -0.2480 ns         1 14M      -0.509900
     25 C4           3.6960     0.3310     1.0200 c6         1 14M       0.211800
     26 C5           3.0590    -1.6940     2.3220 c6         1 14M       0.221800
     27 C6           3.9900    -2.5800     1.4570 c6         1 14M      -0.100400
     28 C17         -7.8320    -1.4460    -0.2250 c6         1 14M      -0.075400
     29 C18         -7.2920     0.0050    -0.2670 c6         1 14M      -0.071400
     30 H1           3.5980     0.1400    -1.6690 hc         1 14M       0.025700
     31 H2           3.1320    -1.5290    -1.0980 hc         1 14M       0.025700
     32 H3           5.4980     0.1380    -0.1490 hc         1 14M       0.071700
     33 H4           5.7770    -2.3780     0.2110 hc         1 14M       0.045200
     34 H5           5.8120    -1.4190     1.6760 hc         1 14M       0.045200
     35 H6          -1.3580    -2.2760    -0.0410 ha         1 14M       0.096000
     36 H7           0.9160    -2.5630     0.8820 ha         1 14M       0.118000
     37 H8          -4.9620    -0.5290    -1.7500 h1         1 14M       0.080700
     38 H9          -4.8620    -2.9770    -1.2750 hc         1 14M       0.044200
     39 H10         -5.3700    -2.7110     0.3900 hc         1 14M       0.044200
     40 H11         -7.0340    -2.1240    -2.1370 hc         1 14M       0.038950
     41 H12         -7.3180    -3.4250    -0.9840 hc         1 14M       0.038950
     42 H13         -5.7210    -0.2230     1.2260 hc         1 14M       0.044200
     43 H14         -5.4440     1.0960     0.0940 hc         1 14M       0.044200
     44 H15          1.3950     3.4020    -0.1650 h1         1 14M       0.079200
     45 H16          0.9810     3.4520     1.5670 h1         1 14M       0.079200
     46 H17         -0.0510     5.4180    -0.5600 hc         1 14M       0.041700
     47 H18         -0.4610     5.4670     1.1560 hc         1 14M       0.041700
     48 H19          1.9550     5.8880     1.7290 hc         1 14M       0.033033
     49 H20          2.3680     5.8390    -0.0020 hc         1 14M       0.033033
     50 H21          1.3200     7.1290     0.6270 hc         1 14M       0.033033
     51 H23         -3.2220    -1.5510     0.3960 hn         1 14M       0.303500
     52 H24          4.2840     0.7320     1.8590 h1         1 14M       0.047700
     53 H25          3.3180     1.2040     0.4690 h1         1 14M       0.047700
     54 H26          3.6100    -1.3540     3.2110 h1         1 14M       0.035700
     55 H27          2.2130    -2.2900     2.6960 h1         1 14M       0.035700
     56 H28          3.4110    -3.0540     0.6530 hc         1 14M       0.046700
     57 H29          4.3910    -3.3980     2.0700 hc         1 14M       0.046700
     58 H30         -8.8670    -1.4700    -0.5910 hc         1 14M       0.034200
     59 H31         -7.8590    -1.8000     0.8150 hc         1 14M       0.034200
     60 H32         -7.8980     0.6460     0.3880 hc         1 14M       0.038950
     61 H33         -7.3960     0.4090    -1.2830 hc         1 14M       0.038950
@<TRIPOS>BOND
     1     1     2 1   
     2     1    19 1   
     3     1    20 1   
     4     2     3 1   
     5     2    30 1   
     6     2    31 1   
     7     3     4 1   
     8     3    25 1   
     9     3    32 1   
    10     4    27 1   
    11     4    33 1   
    12     4    34 1   
    13     5     9 ar  
    14     5    22 1   
    15     5    23 ar  
    16     6     7 ar  
    17     6    18 1   
    18     6    23 ar  
    19     7     8 ar  
    20     7    10 1   
    21     8     9 ar  
    22     8    35 1   
    23     9    36 1   
    24    10    21 2   
    25    10    24 1   
    26    11    12 1   
    27    11    14 1   
    28    11    24 1   
    29    11    37 1   
    30    12    13 1   
    31    12    38 1   
    32    12    39 1   
    33    13    28 1   
    34    13    40 1   
    35    13    41 1   
    36    14    29 1   
    37    14    42 1   
    38    14    43 1   
    39    15    16 1   
    40    15    18 1   
    41    15    44 1   
    42    15    45 1   
    43    16    17 1   
    44    16    46 1   
    45    16    47 1   
    46    17    48 1   
    47    17    49 1   
    48    17    50 1   
    49    22    25 1   
    50    22    26 1   
    51    24    51 1   
    52    25    52 1   
    53    25    53 1   
    54    26    27 1   
    55    26    54 1   
    56    26    55 1   
    57    27    56 1   
    58    27    57 1   
    59    28    29 1   
    60    28    58 1   
    61    28    59 1   
    62    29    60 1   
    63    29    61 1   
@<TRIPOS>SUBSTRUCTURE
     1 14M         1 TEMP              0 ****  ****    0 ROOT
