@<TRIPOS>MOLECULE
14M
   61    63     1     0     0
SMALL
bcc


@<TRIPOS>ATOM
      1 C1           5.0250     0.1570    -1.9020 c          1 14M       0.923600
      2 C2           3.9630     0.1530    -0.7890 c3         1 14M      -0.204400
      3 C3           4.5030     0.0290     0.6320 c6         1 14M      -0.057700
      4 C7           5.1880    -1.3160     0.8940 c6         1 14M      -0.062400
      5 C8           1.2060    -0.7630     1.1560 ca         1 14M       0.757200
      6 C9          -0.3750     0.6620     0.2390 ca         1 14M       0.650600
      7 C10         -1.3670    -0.3330     0.1830 ca         1 14M      -0.359900
      8 C11         -0.9590    -1.6030     0.6060 ca         1 14M      -0.017000
      9 C12          0.3020    -1.8480     1.0820 ca         1 14M      -0.355300
     10 C13         -2.7230    -0.0560    -0.3310 c          1 14M       0.699700
     11 C14         -5.0570    -0.8380    -0.4820 c6         1 14M       0.113700
     12 C15         -5.6360    -2.2260    -0.7430 c6         1 14M      -0.090900
     13 C16         -7.0900    -2.1420    -1.1980 c6         1 14M      -0.071400
     14 C19         -5.9140    -0.0650     0.5210 c6         1 14M      -0.090900
     15 C20          0.8810     3.1310     0.0270 c3         1 14M      -0.022300
     16 C21          0.7710     4.5820    -0.4250 c3         1 14M      -0.066400
     17 C22          2.0720     5.3340    -0.1770 c3         1 14M      -0.089100
     18 S1          -0.6870     2.2980    -0.3500 ss         1 14M      -0.261400
     19 O1           6.1680     0.5660    -1.6100 o          1 14M      -0.845800
     20 O2           4.6450    -0.2160    -3.0320 o          1 14M      -0.845800
     21 O3          -2.9540     0.9510    -0.9970 o          1 14M      -0.607100
     22 N1           2.4520    -0.8750     1.6660 nh         1 14M      -0.760300
     23 N2           0.8310     0.4440     0.7210 nb         1 14M      -0.794000
     24 N3          -3.6810    -0.9580    -0.0410 ns         1 14M      -0.576900
     25 C4           3.3970     0.2310     1.6710 c6         1 14M       0.211800
     26 C5           3.0840    -2.1430     1.9840 c6         1 14M       0.221800
     27 C6           4.1840    -2.4610     0.9760 c6         1 14M      -0.100400
     28 C17         -7.9450    -1.3670    -0.2020 c6         1 14M      -0.075400
     29 C18         -7.3650     0.0190     0.0580 c6         1 14M      -0.071400
     30 H1           3.4050     1.0960    -0.8650 hc         1 14M       0.025700
     31 H2           3.2250    -0.6260    -0.9950 hc         1 14M       0.025700
     32 H3           5.2360     0.8250     0.7850 hc         1 14M       0.071700
     33 H4           5.9350    -1.5120     0.1230 hc         1 14M       0.045200
     34 H5           5.7340    -1.2590     1.8430 hc         1 14M       0.045200
     35 H6          -1.6380    -2.4450     0.5420 ha         1 14M       0.114000
     36 H7           0.5690    -2.8490     1.3780 ha         1 14M       0.136000
     37 H8          -5.0480    -0.2860    -1.4250 h1         1 14M       0.080700
     38 H9          -5.0300    -2.7410    -1.4920 hc         1 14M       0.044200
     39 H10         -5.5780    -2.8220     0.1760 hc         1 14M       0.044200
     40 H11         -7.1320    -1.6480    -2.1750 hc         1 14M       0.038950
     41 H12         -7.4890    -3.1480    -1.3440 hc         1 14M       0.038950
     42 H13         -5.8690    -0.5700     1.4920 hc         1 14M       0.044200
     43 H14         -5.4970     0.9350     0.6640 hc         1 14M       0.044200
     44 H15          1.6960     2.6270    -0.4940 h1         1 14M       0.079200
     45 H16          1.0910     3.0740     1.0960 h1         1 14M       0.079200
     46 H17          0.5230     4.6210    -1.4900 hc         1 14M       0.041700
     47 H18         -0.0470     5.0750     0.1040 hc         1 14M       0.041700
     48 H19          2.3280     5.3410     0.8830 hc         1 14M       0.033033
     49 H20          2.9020     4.8750    -0.7160 hc         1 14M       0.033033
     50 H21          1.9940     6.3700    -0.5080 hc         1 14M       0.033033
     51 H23         -3.4950    -1.6660     0.6510 hn         1 14M       0.303500
     52 H24          3.8430     0.2770     2.6710 h1         1 14M       0.047700
     53 H25          2.8660     1.1630     1.5040 h1         1 14M       0.047700
     54 H26          3.5170    -2.0660     2.9870 h1         1 14M       0.035700
     55 H27          2.3550    -2.9470     2.0270 h1         1 14M       0.035700
     56 H28          3.7330    -2.6540    -0.0020 hc         1 14M       0.046700
     57 H29          4.6830    -3.3850     1.2770 hc         1 14M       0.046700
     58 H30         -8.9710    -1.2860    -0.5670 hc         1 14M       0.034200
     59 H31         -7.9910    -1.9210     0.7420 hc         1 14M       0.034200
     60 H32         -7.9630     0.5480     0.8040 hc         1 14M       0.038950
     61 H33         -7.4180     0.6140    -0.8600 hc         1 14M       0.038950
@<TRIPOS>BOND
     1     1     2 1   
     2     1    19 1   
     3     1    20 1   
     4     2     3 1   
     5     2    30 1   
     6     2    31 1   
     7     3     4 1   
     8     3    25 1   
     9     3    32 1   
    10     4    27 1   
    11     4    33 1   
    12     4    34 1   
    13     5     9 ar  
    14     5    22 1   
    15     5    23 ar  
    16     6     7 ar  
    17     6    18 1   
    18     6    23 ar  
    19     7     8 ar  
    20     7    10 1   
    21     8     9 ar  
    22     8    35 1   
    23     9    36 1   
    24    10    21 2   
    25    10    24 1   
    26    11    12 1   
    27    11    14 1   
    28    11    24 1   
    29    11    37 1   
    30    12    13 1   
    31    12    38 1   
    32    12    39 1   
    33    13    28 1   
    34    13    40 1   
    35    13    41 1   
    36    14    29 1   
    37    14    42 1   
    38    14    43 1   
    39    15    16 1   
    40    15    18 1   
    41    15    44 1   
    42    15    45 1   
    43    16    17 1   
    44    16    46 1   
    45    16    47 1   
    46    17    48 1   
    47    17    49 1   
    48    17    50 1   
    49    22    25 1   
    50    22    26 1   
    51    24    51 1   
    52    25    52 1   
    53    25    53 1   
    54    26    27 1   
    55    26    54 1   
    56    26    55 1   
    57    27    56 1   
    58    27    57 1   
    59    28    29 1   
    60    28    58 1   
    61    28    59 1   
    62    29    60 1   
    63    29    61 1   
@<TRIPOS>SUBSTRUCTURE
     1 14M         1 TEMP              0 ****  ****    0 ROOT
