@<TRIPOS>MOLECULE
14N
   31    32     1     0     0
SMALL
No Charge or Current Charge


@<TRIPOS>ATOM
      1 C3          -2.1240     1.3220     0.1220 c6         1 14N       0.204800
      2 C2          -3.6090     1.0860     0.5590 c6         1 14N       0.156800
      3 N1          -4.3280     0.1130    -0.3190 n3         1 14N      -0.714600
      4 C1          -5.7390    -0.0750     0.0750 c3         1 14N       0.155100
      5 C5          -3.5670    -1.1730    -0.3720 c6         1 14N       0.156800
      6 C4          -2.0820    -0.9860    -0.8290 c6         1 14N       0.204800
      7 N2          -1.3490     0.0450    -0.0210 nh         1 14N      -0.795400
      8 C6           0.0650     0.0340     0.0240 ca         1 14N       0.252000
      9 C7           0.8210     1.1800    -0.2920 ca         1 14N      -0.187000
     10 C8           2.2260     1.1520    -0.2400 ca         1 14N      -0.065500
     11 C9           2.9120    -0.0260     0.1310 ca         1 14N      -0.150600
     12 C12          4.4310    -0.0580     0.1880 c          1 14N       0.713600
     13 O2           5.0500     0.9580    -0.0930 o          1 14N      -0.726000
     14 O1           4.9830    -1.1000     0.5130 o          1 14N      -0.726000
     15 C10          2.1500    -1.1730     0.4500 ca         1 14N      -0.065500
     16 C11          0.7460    -1.1390     0.3960 ca         1 14N      -0.187000
     17 H1          -2.1220     1.8650    -0.8340 h1         1 14N       0.040450
     18 H2          -1.6470     1.9730     0.8700 h1         1 14N       0.040450
     19 H3          -3.6110     0.7240     1.5980 h1         1 14N       0.030450
     20 H4          -4.1300     2.0540     0.5580 h1         1 14N       0.030450
     21 H6          -6.2760     0.8830     0.0590 h1         1 14N       0.023033
     22 H7          -6.2460    -0.7600    -0.6180 h1         1 14N       0.023033
     23 H8          -5.8110    -0.4940     1.0880 h1         1 14N       0.023033
     24 H9          -3.5680    -1.6480     0.6210 h1         1 14N       0.030450
     25 H10         -4.0580    -1.8750    -1.0610 h1         1 14N       0.030450
     26 H11         -1.5800    -1.9620    -0.7660 h1         1 14N       0.040450
     27 H12         -2.0760    -0.6900    -1.8880 h1         1 14N       0.040450
     28 H13          0.3290     2.1010    -0.5910 ha         1 14N       0.086000
     29 H14          2.7800     2.0540    -0.4940 ha         1 14N       0.124000
     30 H16          2.6440    -2.0960     0.7450 ha         1 14N       0.124000
     31 H17          0.1870    -2.0320     0.6600 ha         1 14N       0.086000
@<TRIPOS>BOND
     1     1     2 1   
     2     1     7 1   
     3     1    17 1   
     4     1    18 1   
     5     2     3 1   
     6     2    19 1   
     7     2    20 1   
     8     3     4 1   
     9     3     5 1   
    10     4    21 1   
    11     4    22 1   
    12     4    23 1   
    13     5     6 1   
    14     5    24 1   
    15     5    25 1   
    16     6     7 1   
    17     6    26 1   
    18     6    27 1   
    19     7     8 1   
    20     8     9 ar  
    21     8    16 ar  
    22     9    10 ar  
    23     9    28 1   
    24    10    11 ar  
    25    10    29 1   
    26    11    12 1   
    27    11    15 ar  
    28    12    13 1   
    29    12    14 1   
    30    15    16 ar  
    31    15    30 1   
    32    16    31 1   
@<TRIPOS>SUBSTRUCTURE
     1 14N         1 TEMP              0 ****  ****    0 ROOT
