@<TRIPOS>MOLECULE
14N
   31    32     1     0     0
SMALL
abcg2


@<TRIPOS>ATOM
      1 C3          -2.0970     1.2580     0.0380 c6         1 14N       0.204800
      2 C2          -3.5460     1.0940     0.4590 c6         1 14N       0.156800
      3 N1          -4.2140     0.0940    -0.3450 n3         1 14N      -0.714600
      4 C1          -5.6140    -0.0180    -0.0080 c3         1 14N       0.155100
      5 C5          -3.5260    -1.1730    -0.2140 c6         1 14N       0.156800
      6 C4          -2.0810    -1.0460    -0.6510 c6         1 14N       0.204800
      7 N2          -1.3980    -0.0080     0.1090 nh         1 14N      -0.795400
      8 C6          -0.0060     0.0050     0.0800 ca         1 14N       0.252000
      9 C7           0.7320     1.1870    -0.0780 ca         1 14N      -0.187000
     10 C8           2.1190     1.1710    -0.0580 ca         1 14N      -0.065500
     11 C9           2.8390    -0.0060     0.1040 ca         1 14N      -0.150600
     12 C12          4.3550    -0.0140     0.1160 c          1 14N       0.713600
     13 O2           4.9250     1.0890    -0.0080 o          1 14N      -0.726000
     14 O1           4.9110    -1.1230     0.2490 o          1 14N      -0.726000
     15 C10          2.1040    -1.1820     0.2540 ca         1 14N      -0.065500
     16 C11          0.7220    -1.1850     0.2470 ca         1 14N      -0.187000
     17 H1          -2.0600     1.6870    -0.9750 h1         1 14N       0.040450
     18 H2          -1.6290     1.9740     0.7140 h1         1 14N       0.040450
     19 H3          -3.5850     0.8410     1.5340 h1         1 14N       0.030450
     20 H4          -4.0530     2.0540     0.3370 h1         1 14N       0.030450
     21 H6          -6.1180     0.9360    -0.1730 h1         1 14N       0.023033
     22 H7          -6.0920    -0.7630    -0.6470 h1         1 14N       0.023033
     23 H8          -5.7870    -0.3140     1.0380 h1         1 14N       0.023033
     24 H9          -3.5590    -1.5480     0.8240 h1         1 14N       0.030450
     25 H10         -4.0180    -1.9190    -0.8420 h1         1 14N       0.030450
     26 H11         -1.5950    -2.0070    -0.5040 h1         1 14N       0.040450
     27 H12         -2.0440    -0.8210    -1.7270 h1         1 14N       0.040450
     28 H13          0.2320     2.1330    -0.2340 ha         1 14N       0.086000
     29 H14          2.6520     2.1050    -0.1880 ha         1 14N       0.124000
     30 H16          2.6270    -2.1200     0.3920 ha         1 14N       0.124000
     31 H17          0.2040    -2.1230     0.3970 ha         1 14N       0.086000
@<TRIPOS>BOND
     1     1     2 1   
     2     1     7 1   
     3     1    17 1   
     4     1    18 1   
     5     2     3 1   
     6     2    19 1   
     7     2    20 1   
     8     3     4 1   
     9     3     5 1   
    10     4    21 1   
    11     4    22 1   
    12     4    23 1   
    13     5     6 1   
    14     5    24 1   
    15     5    25 1   
    16     6     7 1   
    17     6    26 1   
    18     6    27 1   
    19     7     8 1   
    20     8     9 ar  
    21     8    16 ar  
    22     9    10 ar  
    23     9    28 1   
    24    10    11 ar  
    25    10    29 1   
    26    11    12 1   
    27    11    15 ar  
    28    12    13 1   
    29    12    14 1   
    30    15    16 ar  
    31    15    30 1   
    32    16    31 1   
@<TRIPOS>SUBSTRUCTURE
     1 14N         1 TEMP              0 ****  ****    0 ROOT
