@<TRIPOS>MOLECULE
14O
   16    17     1     0     0
SMALL
abcg2


@<TRIPOS>ATOM
      1 C1           0.1700     1.6330     0.0030 ca         1 14O      -0.100000
      2 C2           1.4820     1.2000    -0.0090 ca         1 14O      -0.131000
      3 C3           1.7590    -0.1700    -0.0120 ca         1 14O       0.138000
      4 C4           0.7890    -1.1400    -0.0050 ca         1 14O      -0.103000
      5 C5          -0.5470    -0.7160     0.0070 ca         1 14O      -0.075800
      6 C6          -0.8350     0.6680     0.0110 ca         1 14O      -0.068200
      7 C8          -2.7690    -0.4340     0.0290 cc         1 14O      -0.156100
      8 C9          -1.8000    -1.3980     0.0190 cd         1 14O      -0.243200
      9 F10          3.0550    -0.5480    -0.0240 f          1 14O      -0.187000
     10 N7          -2.1940     0.8020     0.0240 na         1 14O      -0.220700
     11 H1          -0.0610     2.6900     0.0070 ha         1 14O       0.116000
     12 H2           2.2950     1.9130    -0.0150 ha         1 14O       0.129000
     13 H4           1.0510    -2.1910    -0.0090 ha         1 14O       0.133000
     14 H8          -3.8420    -0.5370     0.0410 h4         1 14O       0.213000
     15 H9          -1.9640    -2.4640     0.0190 ha         1 14O       0.208000
     16 HN7         -2.6970     1.6730     0.0300 hn         1 14O       0.350000
@<TRIPOS>BOND
     1     1     2 ar  
     2     1     6 ar  
     3     1    11 1   
     4     2     3 ar  
     5     2    12 1   
     6     3     4 ar  
     7     3     9 1   
     8     4     5 ar  
     9     4    13 1   
    10     5     6 ar  
    11     5     8 1   
    12     6    10 1   
    13     7     8 2   
    14     7    10 1   
    15     7    14 1   
    16     8    15 1   
    17    10    16 1   
@<TRIPOS>SUBSTRUCTURE
     1 14O         1 TEMP              0 ****  ****    0 ROOT
