@<TRIPOS>MOLECULE
14O
   16    17     1     0     0
SMALL
No Charge or Current Charge


@<TRIPOS>ATOM
      1 C1           0.1660     1.6360     0.0040 ca         1 14O      -0.100000
      2 C2           1.5120     1.2020    -0.0090 ca         1 14O      -0.131000
      3 C3           1.8170    -0.1810    -0.0130 ca         1 14O       0.138000
      4 C4           0.7890    -1.1460    -0.0050 ca         1 14O      -0.103000
      5 C5          -0.5300    -0.6780     0.0080 ca         1 14O      -0.075800
      6 C6          -0.8350     0.6550     0.0120 ca         1 14O      -0.068200
      7 C8          -2.8440    -0.4560     0.0300 cc         1 14O      -0.156100
      8 C9          -1.7940    -1.3640     0.0190 cd         1 14O      -0.243200
      9 F10          3.1080    -0.5790    -0.0260 f          1 14O      -0.187000
     10 N7          -2.2130     0.8090     0.0250 na         1 14O      -0.220700
     11 H1          -0.0820     2.6950     0.0070 ha         1 14O       0.116000
     12 H2           2.3180     1.9320    -0.0160 ha         1 14O       0.129000
     13 H4           1.0150    -2.2090    -0.0080 ha         1 14O       0.133000
     14 H8          -3.9230    -0.5930     0.0390 h4         1 14O       0.213000
     15 H9          -1.9160    -2.4450     0.0190 ha         1 14O       0.208000
     16 HN7         -2.6950     1.7030     0.0300 hn         1 14O       0.350000
@<TRIPOS>BOND
     1     1     2 ar  
     2     1     6 ar  
     3     1    11 1   
     4     2     3 ar  
     5     2    12 1   
     6     3     4 ar  
     7     3     9 1   
     8     4     5 ar  
     9     4    13 1   
    10     5     6 ar  
    11     5     8 1   
    12     6    10 1   
    13     7     8 2   
    14     7    10 1   
    15     7    14 1   
    16     8    15 1   
    17    10    16 1   
@<TRIPOS>SUBSTRUCTURE
     1 14O         1 TEMP              0 ****  ****    0 ROOT
