@<TRIPOS>MOLECULE
14Q
   52    55     1     0     0
SMALL
abcg2


@<TRIPOS>ATOM
      1 CAY          1.3340     1.9980     0.6210 c3         1 14Q      -0.084100
      2 CAH          2.2820     1.0260     1.3230 c3         1 14Q      -0.136700
      3 C4           3.6590     1.0740     0.7310 ca         1 14Q       0.222300
      4 N3           4.5470     1.8560     1.3330 nb         1 14Q      -0.290000
      5 C2           5.7660     1.9160     0.7820 ca         1 14Q       0.427900
      6 NAG          6.6560     2.7340     1.3740 nv         1 14Q      -1.063900
      7 N1           6.1760     1.2630    -0.3040 nb         1 14Q      -0.341000
      8 C6           5.2890     0.4830    -0.9110 ca         1 14Q       0.442900
      9 NAI          5.6820    -0.1630    -2.0170 nv         1 14Q      -1.072900
     10 C5           3.9650     0.3480    -0.4190 ca         1 14Q      -0.221000
     11 CAJ          3.0160    -0.4780    -1.0700 cg         1 14Q      -0.078000
     12 CAK          2.1920    -1.1740    -1.6130 c1         1 14Q      -0.168100
     13 CAL          1.1250    -1.9760    -2.1990 c3         1 14Q       0.065000
     14 CAM         -0.0360    -2.0600    -1.2320 ca         1 14Q      -0.043300
     15 CAR         -0.9550    -1.0260    -1.1660 ca         1 14Q      -0.129000
     16 CAN         -0.1490    -3.1570    -0.3850 ca         1 14Q      -0.186000
     17 CAO         -1.1930    -3.2110     0.5340 ca         1 14Q       0.141100
     18 OAZ         -1.3870    -4.2240     1.3990 os         1 14Q      -0.342100
     19 CBA         -0.4620    -5.2930     1.4090 c3         1 14Q       0.148900
     20 CAP         -2.1110    -2.1630     0.6050 ca         1 14Q      -0.135000
     21 CAQ         -2.0010    -1.0660    -0.2410 cp         1 14Q       0.003000
     22 CAS         -2.9700     0.0460    -0.1540 cp         1 14Q      -0.035000
     23 CAX         -4.3230    -0.2190     0.1300 ca         1 14Q      -0.085000
     24 CAW         -5.1760     0.8520     0.2090 ca         1 14Q       0.050100
     25 OBB         -6.5030     0.8520     0.4760 os         1 14Q      -0.345100
     26 CBC         -6.9500     2.1910     0.3030 c5         1 14Q       0.375600
     27 OBD         -5.7900     3.0020     0.1610 os         1 14Q      -0.344100
     28 CAV         -4.7450     2.1550     0.0160 ca         1 14Q       0.056100
     29 CAU         -3.4330     2.4430    -0.2640 ca         1 14Q      -0.098000
     30 CAT         -2.5510     1.3600    -0.3450 ca         1 14Q      -0.100000
     31 H1           0.3500     1.9740     1.0900 hc         1 14Q       0.038033
     32 H2           1.7060     3.0210     0.6760 hc         1 14Q       0.038033
     33 H3           1.2080     1.7370    -0.4310 hc         1 14Q       0.038033
     34 H4           2.3520     1.2790     2.3810 hc         1 14Q       0.062700
     35 H5           1.8810     0.0130     1.2480 hc         1 14Q       0.062700
     36 H6           6.4460     3.1100     2.2810 hn         1 14Q       0.496500
     37 H7           7.6230     2.6880     1.1020 hn         1 14Q       0.496500
     38 H8           5.0950    -0.8590    -2.4410 hn         1 14Q       0.498000
     39 H9           6.6510    -0.1420    -2.2830 hn         1 14Q       0.498000
     40 H10          0.7990    -1.5300    -3.1420 hc         1 14Q       0.061200
     41 H11          1.4940    -2.9760    -2.4390 hc         1 14Q       0.061200
     42 H12         -0.8690    -0.1910    -1.8510 ha         1 14Q       0.120000
     43 H13          0.5830    -3.9510    -0.4560 ha         1 14Q       0.119000
     44 H14         -0.7840    -5.9730     2.1940 h1         1 14Q       0.041033
     45 H15         -0.4500    -5.8340     0.4590 h1         1 14Q       0.041033
     46 H16          0.5530    -4.9530     1.6330 h1         1 14Q       0.041033
     47 H17         -2.8960    -2.2090     1.3490 ha         1 14Q       0.131000
     48 H18         -4.6860    -1.2300     0.2640 ha         1 14Q       0.138000
     49 H19         -7.5660     2.2640    -0.5980 h2         1 14Q       0.064200
     50 H20         -7.5160     2.5070     1.1800 h2         1 14Q       0.064200
     51 H21         -3.0880     3.4570    -0.4080 ha         1 14Q       0.135000
     52 H22         -1.5080     1.5630    -0.5450 ha         1 14Q       0.124000
@<TRIPOS>BOND
     1     1     2 1   
     2     1    31 1   
     3     1    32 1   
     4     1    33 1   
     5     2     3 1   
     6     2    34 1   
     7     2    35 1   
     8     3     4 ar  
     9     3    10 ar  
    10     4     5 ar  
    11     5     6 1   
    12     5     7 ar  
    13     6    36 1   
    14     6    37 1   
    15     7     8 ar  
    16     8     9 1   
    17     8    10 ar  
    18     9    38 1   
    19     9    39 1   
    20    10    11 1   
    21    11    12 3   
    22    12    13 1   
    23    13    14 1   
    24    13    40 1   
    25    13    41 1   
    26    14    15 ar  
    27    14    16 ar  
    28    15    21 ar  
    29    15    42 1   
    30    16    17 ar  
    31    16    43 1   
    32    17    18 1   
    33    17    20 ar  
    34    18    19 1   
    35    19    44 1   
    36    19    45 1   
    37    19    46 1   
    38    20    21 ar  
    39    20    47 1   
    40    21    22 1   
    41    22    23 ar  
    42    22    30 ar  
    43    23    24 ar  
    44    23    48 1   
    45    24    25 1   
    46    24    28 ar  
    47    25    26 1   
    48    26    27 1   
    49    26    49 1   
    50    26    50 1   
    51    27    28 1   
    52    28    29 ar  
    53    29    30 ar  
    54    29    51 1   
    55    30    52 1   
@<TRIPOS>SUBSTRUCTURE
     1 14Q         1 TEMP              0 ****  ****    0 ROOT
