@<TRIPOS>MOLECULE
14Q
   52    55     1     0     0
SMALL
No Charge or Current Charge


@<TRIPOS>ATOM
      1 CAY          1.2130     1.5280     1.0270 c3         1 14Q      -0.084100
      2 CAH          2.4250     0.7250     1.5450 c3         1 14Q      -0.136700
      3 C4           3.7080     1.0050     0.7580 ca         1 14Q       0.222300
      4 N3           4.5770     1.8610     1.3350 nb         1 14Q      -0.290000
      5 C2           5.7020     2.1130     0.6590 ca         1 14Q       0.427900
      6 NAG          6.5700     2.9670     1.2440 nv         1 14Q      -1.063900
      7 N1           6.0790     1.6210    -0.5230 nb         1 14Q      -0.341000
      8 C6           5.2180     0.7770    -1.0960 ca         1 14Q       0.442900
      9 NAI          5.6260     0.2930    -2.2980 nv         1 14Q      -1.072900
     10 C5           3.9930     0.4180    -0.4990 ca         1 14Q      -0.221000
     11 CAJ          3.0700    -0.4930    -1.1280 cg         1 14Q      -0.078000
     12 CAK          2.2580    -1.2450    -1.6230 c1         1 14Q      -0.168100
     13 CAL          1.2100    -2.1230    -2.1560 c3         1 14Q       0.065000
     14 CAM          0.0230    -2.1520    -1.1980 ca         1 14Q      -0.043300
     15 CAR         -0.8860    -1.0760    -1.1700 ca         1 14Q      -0.129000
     16 CAN         -0.1590    -3.2350    -0.3180 ca         1 14Q      -0.186000
     17 CAO         -1.2450    -3.2420     0.5820 ca         1 14Q       0.141100
     18 OAZ         -1.4680    -4.2750     1.4690 os         1 14Q      -0.342100
     19 CBA         -0.6060    -5.4250     1.5410 c3         1 14Q       0.148900
     20 CAP         -2.1410    -2.1620     0.5980 ca         1 14Q      -0.135000
     21 CAQ         -1.9820    -1.0560    -0.2730 cp         1 14Q       0.003000
     22 CAS         -2.9370     0.0980    -0.2410 cp         1 14Q      -0.035000
     23 CAX         -4.3190    -0.1050     0.0360 ca         1 14Q      -0.085000
     24 CAW         -5.1780     1.0000     0.0600 ca         1 14Q       0.050100
     25 OBB         -6.5140     0.9620     0.2970 os         1 14Q      -0.345100
     26 CBC         -6.8920     2.3850     0.2570 c5         1 14Q       0.375600
     27 OBD         -5.7190     3.1910    -0.1210 os         1 14Q      -0.344100
     28 CAV         -4.7270     2.2660    -0.1790 ca         1 14Q       0.056100
     29 CAU         -3.3820     2.5240    -0.4600 ca         1 14Q      -0.098000
     30 CAT         -2.4890     1.4320    -0.4890 ca         1 14Q      -0.100000
     31 H1           0.3180     1.2930     1.6140 hc         1 14Q       0.038033
     32 H2           1.4020     2.6050     1.1020 hc         1 14Q       0.038033
     33 H3           1.0040     1.2880    -0.0220 hc         1 14Q       0.038033
     34 H4           2.5720     0.9630     2.6060 hc         1 14Q       0.062700
     35 H5           2.1850    -0.3440     1.5130 hc         1 14Q       0.062700
     36 H6           6.4430     3.1770     2.2300 hn         1 14Q       0.496500
     37 H7           7.5220     3.0050     0.8880 hn         1 14Q       0.496500
     38 H8           5.1320    -0.5120    -2.6750 hn         1 14Q       0.498000
     39 H9           6.6060     0.3900    -2.5490 hn         1 14Q       0.498000
     40 H10          0.9000    -1.7590    -3.1430 hc         1 14Q       0.061200
     41 H11          1.6220    -3.1290    -2.3050 hc         1 14Q       0.061200
     42 H12         -0.7390    -0.2470    -1.8570 ha         1 14Q       0.120000
     43 H13          0.5520    -4.0550    -0.3430 ha         1 14Q       0.119000
     44 H14         -0.9640    -6.1210     2.3100 h1         1 14Q       0.041033
     45 H15         -0.5870    -5.9590     0.5820 h1         1 14Q       0.041033
     46 H16          0.4180    -5.1300     1.8010 h1         1 14Q       0.041033
     47 H17         -2.9600    -2.1770     1.3100 ha         1 14Q       0.131000
     48 H18         -4.7160    -1.1000     0.2150 ha         1 14Q       0.138000
     49 H19         -7.6920     2.5330    -0.4780 h2         1 14Q       0.064200
     50 H20         -7.2340     2.6930     1.2520 h2         1 14Q       0.064200
     51 H21         -3.0370     3.5380    -0.6480 ha         1 14Q       0.135000
     52 H22         -1.4390     1.6230    -0.6930 ha         1 14Q       0.124000
@<TRIPOS>BOND
     1     1     2 1   
     2     1    31 1   
     3     1    32 1   
     4     1    33 1   
     5     2     3 1   
     6     2    34 1   
     7     2    35 1   
     8     3     4 ar  
     9     3    10 ar  
    10     4     5 ar  
    11     5     6 1   
    12     5     7 ar  
    13     6    36 1   
    14     6    37 1   
    15     7     8 ar  
    16     8     9 1   
    17     8    10 ar  
    18     9    38 1   
    19     9    39 1   
    20    10    11 1   
    21    11    12 3   
    22    12    13 1   
    23    13    14 1   
    24    13    40 1   
    25    13    41 1   
    26    14    15 ar  
    27    14    16 ar  
    28    15    21 ar  
    29    15    42 1   
    30    16    17 ar  
    31    16    43 1   
    32    17    18 1   
    33    17    20 ar  
    34    18    19 1   
    35    19    44 1   
    36    19    45 1   
    37    19    46 1   
    38    20    21 ar  
    39    20    47 1   
    40    21    22 1   
    41    22    23 ar  
    42    22    30 ar  
    43    23    24 ar  
    44    23    48 1   
    45    24    25 1   
    46    24    28 ar  
    47    25    26 1   
    48    26    27 1   
    49    26    49 1   
    50    26    50 1   
    51    27    28 1   
    52    28    29 ar  
    53    29    30 ar  
    54    29    51 1   
    55    30    52 1   
@<TRIPOS>SUBSTRUCTURE
     1 14Q         1 TEMP              0 ****  ****    0 ROOT
