@<TRIPOS>MOLECULE
14R
   66    72     1     0     0
SMALL
No Charge or Current Charge


@<TRIPOS>ATOM
      1 C1          -0.2460     3.6020     2.2620 c3         1 14R      -0.082100
      2 C2           0.1980     2.1660     1.9100 c3         1 14R      -0.114700
      3 C3          -0.9470     1.2590     1.5130 cc         1 14R       0.463800
      4 N1          -1.8650     0.8670     2.3840 nd         1 14R      -0.686000
      5 C4          -2.7030     0.0620     1.6700 cd         1 14R       0.374800
      6 C5          -3.8540    -0.5950     2.1840 cd         1 14R      -0.326800
      7 C6          -4.5980    -1.3760     1.3250 cc         1 14R      -0.067400
      8 N2          -4.2460    -1.5310    -0.0200 n          1 14R      -0.279000
      9 C7          -3.1090    -0.8940    -0.5810 c          1 14R       0.602600
     10 O1          -2.7990    -1.0200    -1.7580 o          1 14R      -0.589000
     11 C8          -2.3350    -0.0690     0.3690 cc         1 14R      -0.295600
     12 N3          -1.1850     0.7060     0.2500 na         1 14R      -0.131500
     13 C9          -0.3660     0.8670    -0.9670 c5         1 14R       0.119600
     14 C10         -0.2570     2.3290    -1.5550 c5         1 14R      -0.089400
     15 C11          1.1230     2.3810    -2.3160 c5         1 14R      -0.032100
     16 C12          1.9070     1.3530    -1.5450 ca         1 14R      -0.075300
     17 C13          1.0920     0.5120    -0.8150 ca         1 14R      -0.103300
     18 C14          1.6360    -0.5170    -0.0290 ca         1 14R      -0.077000
     19 C15          3.0340    -0.6660     0.0200 ca         1 14R      -0.102000
     20 C16          3.8890     0.2050    -0.7060 cp         1 14R      -0.042000
     21 C17          3.3030     1.2140    -1.5110 ca         1 14R      -0.069000
     22 C18          5.3710     0.0540    -0.6360 cp         1 14R       0.013000
     23 C19          6.0750    -0.2180    -1.8330 ca         1 14R      -0.102000
     24 C20          7.4620    -0.4180    -1.8340 ca         1 14R      -0.088000
     25 C21          8.1720    -0.3430    -0.6290 ca         1 14R      -0.110000
     26 C22          7.4970    -0.0640     0.5700 ca         1 14R      -0.091000
     27 C23          6.0940     0.1330     0.5950 ca         1 14R      -0.140500
     28 C24          5.4760     0.5090     1.8800 cc         1 14R       0.453000
     29 N4           5.9570     0.1900     3.1180 na         1 14R      -0.211700
     30 N5           5.1730     0.7230     4.0890 nc         1 14R      -0.202800
     31 N6           4.2420     1.3640     3.4370 nd         1 14R      -0.049000
     32 N7           4.4090     1.2590     2.0760 nd         1 14R      -0.371000
     33 C25         -5.0940    -2.3690    -0.9010 c3         1 14R       0.135300
     34 C26         -6.3010    -1.6200    -1.4540 ca         1 14R      -0.115300
     35 C27         -7.5480    -1.6990    -0.8020 ca         1 14R      -0.092500
     36 C28         -8.6590    -1.0030    -1.3100 ca         1 14R      -0.113000
     37 C29         -8.5310    -0.2260    -2.4730 ca         1 14R      -0.101000
     38 C30         -7.2900    -0.1440    -3.1280 ca         1 14R      -0.113000
     39 C31         -6.1790    -0.8390    -2.6200 ca         1 14R      -0.092500
     40 H5           0.6230     4.2170     2.5270 hc         1 14R       0.041367
     41 H3          -0.7540     4.0730     1.4130 hc         1 14R       0.041367
     42 H4          -0.9350     3.5970     3.1150 hc         1 14R       0.041367
     43 H7           0.9590     2.2210     1.1270 hc         1 14R       0.070200
     44 H6           0.7050     1.7320     2.7790 hc         1 14R       0.070200
     45 H8          -4.1310    -0.4770     3.2260 ha         1 14R       0.212000
     46 H9          -5.4980    -1.9210     1.5970 h4         1 14R       0.199000
     47 H1          -0.7580     0.2150    -1.7540 h1         1 14R       0.114700
     48 H11         -1.1020     2.5710    -2.2100 hc         1 14R       0.062700
     49 H10         -0.2660     3.0770    -0.7570 hc         1 14R       0.062700
     50 H13          1.0160     2.0940    -3.3690 hc         1 14R       0.060200
     51 H12          1.5740     3.3790    -2.2860 hc         1 14R       0.060200
     52 H14          0.9910    -1.1820     0.5410 ha         1 14R       0.128000
     53 H15          3.4640    -1.4560     0.6310 ha         1 14R       0.112000
     54 H16          3.9320     1.8910    -2.0830 ha         1 14R       0.122000
     55 H17          5.5290    -0.2880    -2.7710 ha         1 14R       0.126000
     56 H18          7.9840    -0.6300    -2.7650 ha         1 14R       0.121000
     57 H19          9.2500    -0.4900    -0.6250 ha         1 14R       0.122000
     58 H20          8.0840     0.0180     1.4820 ha         1 14R       0.117000
     59 H2           6.7700    -0.3750     3.3260 hn         1 14R       0.387000
     60 H22         -4.5010    -2.7690    -1.7340 h1         1 14R       0.072200
     61 H21         -5.4400    -3.2400    -0.3300 h1         1 14R       0.072200
     62 H23         -7.6580    -2.2970     0.1000 ha         1 14R       0.118500
     63 H24         -9.6190    -1.0670    -0.8020 ha         1 14R       0.114000
     64 H25         -9.3910     0.3130    -2.8670 ha         1 14R       0.113000
     65 H26         -7.1900     0.4580    -4.0290 ha         1 14R       0.114000
     66 H27         -5.2220    -0.7690    -3.1330 ha         1 14R       0.118500
@<TRIPOS>BOND
     1     1     2 1   
     2     1    40 1   
     3     1    41 1   
     4     1    42 1   
     5     2     3 1   
     6     2    43 1   
     7     2    44 1   
     8     3     4 2   
     9     3    12 1   
    10     4     5 1   
    11     5     6 1   
    12     5    11 2   
    13     6     7 2   
    14     6    45 1   
    15     7     8 1   
    16     7    46 1   
    17     8     9 1   
    18     8    33 1   
    19     9    10 2   
    20     9    11 1   
    21    11    12 1   
    22    12    13 1   
    23    13    14 1   
    24    13    17 1   
    25    13    47 1   
    26    14    15 1   
    27    14    48 1   
    28    14    49 1   
    29    15    16 1   
    30    15    50 1   
    31    15    51 1   
    32    16    17 ar  
    33    16    21 ar  
    34    17    18 ar  
    35    18    19 ar  
    36    18    52 1   
    37    19    20 ar  
    38    19    53 1   
    39    20    21 ar  
    40    20    22 1   
    41    21    54 1   
    42    22    23 ar  
    43    22    27 ar  
    44    23    24 ar  
    45    23    55 1   
    46    24    25 ar  
    47    24    56 1   
    48    25    26 ar  
    49    25    57 1   
    50    26    27 ar  
    51    26    58 1   
    52    27    28 1   
    53    28    29 1   
    54    28    32 2   
    55    29    30 1   
    56    29    59 1   
    57    30    31 2   
    58    31    32 1   
    59    33    34 1   
    60    33    60 1   
    61    33    61 1   
    62    34    35 ar  
    63    34    39 ar  
    64    35    36 ar  
    65    35    62 1   
    66    36    37 ar  
    67    36    63 1   
    68    37    38 ar  
    69    37    64 1   
    70    38    39 ar  
    71    38    65 1   
    72    39    66 1   
@<TRIPOS>SUBSTRUCTURE
     1 14R         1 TEMP              0 ****  ****    0 ROOT
