@<TRIPOS>MOLECULE
14R
   66    72     1     0     0
SMALL
bcc


@<TRIPOS>ATOM
      1 C1          -0.0760     3.2810     2.1750 c3         1 14R      -0.082100
      2 C2           0.3610     1.8880     1.7280 c3         1 14R      -0.114700
      3 C3          -0.8050     1.0210     1.3870 cc         1 14R       0.463800
      4 N1          -1.7170     0.7050     2.2830 nd         1 14R      -0.686000
      5 C4          -2.6230    -0.0650     1.6320 cd         1 14R       0.440100
      6 C5          -3.8070    -0.6720     2.1180 cd         1 14R      -0.276800
      7 C6          -4.5260    -1.3800     1.2200 cc         1 14R      -0.017400
      8 N2          -4.1570    -1.5230    -0.0930 n          1 14R      -0.346000
      9 C7          -3.0200    -0.9540    -0.6520 c          1 14R       0.745100
     10 O1          -2.7520    -1.0900    -1.8460 o          1 14R      -0.664500
     11 C8          -2.2530    -0.2240     0.3090 cc         1 14R      -0.310200
     12 N3          -1.0750     0.4800     0.1690 na         1 14R      -0.152900
     13 C9          -0.2940     0.5980    -1.0560 c5         1 14R       0.090300
     14 C10         -0.2960     2.0020    -1.6870 c5         1 14R      -0.089400
     15 C11          1.0500     2.1020    -2.4220 c5         1 14R      -0.032100
     16 C12          1.9330     1.1570    -1.6550 ca         1 14R      -0.075300
     17 C13          1.1690     0.2890    -0.8860 ca         1 14R      -0.103300
     18 C14          1.7630    -0.6820    -0.0980 ca         1 14R      -0.095000
     19 C15          3.1480    -0.7350    -0.0420 ca         1 14R      -0.120000
     20 C16          3.9280     0.1580    -0.7780 cp         1 14R      -0.042000
     21 C17          3.3150     1.0910    -1.6130 ca         1 14R      -0.087000
     22 C18          5.4000     0.1330    -0.6310 cp         1 14R       0.013000
     23 C19          6.2170    -0.1890    -1.7090 ca         1 14R      -0.120000
     24 C20          7.5950    -0.2670    -1.5620 ca         1 14R      -0.106000
     25 C21          8.1780    -0.0240    -0.3260 ca         1 14R      -0.128000
     26 C22          7.3790     0.3140     0.7550 ca         1 14R      -0.109000
     27 C23          5.9970     0.4040     0.6060 ca         1 14R      -0.140500
     28 C24          5.1820     0.8340     1.7440 cc         1 14R       0.453000
     29 N4           5.2020     0.2870     2.9610 na         1 14R      -0.161400
     30 N5           4.3600     0.9370     3.7430 nc         1 14R      -0.202800
     31 N6           3.8440     1.8570     3.0260 nd         1 14R      -0.049000
     32 N7           4.3250     1.8290     1.7850 nd         1 14R      -0.371000
     33 C25         -5.0700    -2.2700    -0.9630 c3         1 14R       0.135300
     34 C26         -6.2650    -1.4450    -1.3620 ca         1 14R      -0.115300
     35 C27         -7.5080    -1.6880    -0.7880 ca         1 14R      -0.110500
     36 C28         -8.6110    -0.9160    -1.1320 ca         1 14R      -0.131000
     37 C29         -8.4770     0.1100    -2.0560 ca         1 14R      -0.119000
     38 C30         -7.2390     0.3570    -2.6370 ca         1 14R      -0.131000
     39 C31         -6.1400    -0.4160    -2.2940 ca         1 14R      -0.110500
     40 H5           0.7930     3.8640     2.4770 hc         1 14R       0.041367
     41 H3          -0.5790     3.8190     1.3700 hc         1 14R       0.041367
     42 H4          -0.7590     3.2290     3.0220 hc         1 14R       0.041367
     43 H7           1.0650     1.9660     0.9040 hc         1 14R       0.070200
     44 H6           0.9100     1.4030     2.5380 hc         1 14R       0.070200
     45 H8          -4.1280    -0.5860     3.1450 ha         1 14R       0.162000
     46 H9          -5.4420    -1.8810     1.4970 h4         1 14R       0.149000
     47 H1          -0.7360    -0.1110    -1.7550 h1         1 14R       0.114700
     48 H11         -1.1520     2.1470    -2.3450 hc         1 14R       0.062700
     49 H10         -0.3520     2.7640    -0.9070 hc         1 14R       0.062700
     50 H13          0.9530     1.7700    -3.4590 hc         1 14R       0.060200
     51 H12          1.4370     3.1210    -2.4500 hc         1 14R       0.060200
     52 H14          1.1670    -1.3690     0.4900 ha         1 14R       0.146000
     53 H15          3.6310    -1.4730     0.5870 ha         1 14R       0.130000
     54 H16          3.9210     1.7880    -2.1800 ha         1 14R       0.140000
     55 H17          5.7650    -0.4040    -2.6690 ha         1 14R       0.144000
     56 H18          8.2120    -0.5250    -2.4120 ha         1 14R       0.139000
     57 H19          9.2510    -0.0860    -0.2040 ha         1 14R       0.140000
     58 H20          7.8350     0.5360     1.7120 ha         1 14R       0.135000
     59 H2           5.7230    -0.5080     3.3060 hn         1 14R       0.336700
     60 H22         -4.5140    -2.6000    -1.8370 h1         1 14R       0.072200
     61 H21         -5.3870    -3.1630    -0.4250 h1         1 14R       0.072200
     62 H23         -7.6180    -2.4890    -0.0660 ha         1 14R       0.136500
     63 H24         -9.5720    -1.1170    -0.6760 ha         1 14R       0.132000
     64 H25         -9.3340     0.7140    -2.3250 ha         1 14R       0.131000
     65 H26         -7.1310     1.1530    -3.3630 ha         1 14R       0.132000
     66 H27         -5.1790    -0.2210    -2.7540 ha         1 14R       0.136500
@<TRIPOS>BOND
     1     1     2 1   
     2     1    40 1   
     3     1    41 1   
     4     1    42 1   
     5     2     3 1   
     6     2    43 1   
     7     2    44 1   
     8     3     4 2   
     9     3    12 1   
    10     4     5 1   
    11     5     6 1   
    12     5    11 2   
    13     6     7 2   
    14     6    45 1   
    15     7     8 1   
    16     7    46 1   
    17     8     9 1   
    18     8    33 1   
    19     9    10 2   
    20     9    11 1   
    21    11    12 1   
    22    12    13 1   
    23    13    14 1   
    24    13    17 1   
    25    13    47 1   
    26    14    15 1   
    27    14    48 1   
    28    14    49 1   
    29    15    16 1   
    30    15    50 1   
    31    15    51 1   
    32    16    17 ar  
    33    16    21 ar  
    34    17    18 ar  
    35    18    19 ar  
    36    18    52 1   
    37    19    20 ar  
    38    19    53 1   
    39    20    21 ar  
    40    20    22 1   
    41    21    54 1   
    42    22    23 ar  
    43    22    27 ar  
    44    23    24 ar  
    45    23    55 1   
    46    24    25 ar  
    47    24    56 1   
    48    25    26 ar  
    49    25    57 1   
    50    26    27 ar  
    51    26    58 1   
    52    27    28 1   
    53    28    29 1   
    54    28    32 2   
    55    29    30 1   
    56    29    59 1   
    57    30    31 2   
    58    31    32 1   
    59    33    34 1   
    60    33    60 1   
    61    33    61 1   
    62    34    35 ar  
    63    34    39 ar  
    64    35    36 ar  
    65    35    62 1   
    66    36    37 ar  
    67    36    63 1   
    68    37    38 ar  
    69    37    64 1   
    70    38    39 ar  
    71    38    65 1   
    72    39    66 1   
@<TRIPOS>SUBSTRUCTURE
     1 14R         1 TEMP              0 ****  ****    0 ROOT
