@<TRIPOS>MOLECULE
14S
   68    71     1     0     0
SMALL
abcg2


@<TRIPOS>ATOM
      1 O33         -7.3910     2.2100    -2.4360 o          1 14S      -0.551000
      2 C28         -7.6660     2.2050    -1.2460 c          1 14S       0.563000
      3 C32         -8.6550     3.1120    -0.5440 c5         1 14S      -0.168400
      4 C34         -8.3200     2.9460     0.9340 c5         1 14S      -0.091400
      5 C29         -7.7000     1.5500     1.0060 c5         1 14S       0.097000
      6 N24         -7.1590     1.3620    -0.3270 n          1 14S      -0.421800
      7 C21         -6.2480     0.2870    -0.6290 c3         1 14S       0.112000
      8 C19         -4.8140     0.6130    -0.2280 c3         1 14S      -0.117400
      9 C15         -3.8910    -0.5690    -0.4740 c3         1 14S       0.106000
     10 N10         -2.5470    -0.2490    -0.0400 ns         1 14S      -0.499900
     11 C6          -1.5090    -1.0810    -0.2410 c          1 14S       0.647700
     12 O11         -1.6630    -2.1570    -0.8250 o          1 14S      -0.652100
     13 C2          -0.1970    -0.6420     0.2660 ca         1 14S      -0.410600
     14 C1           0.8770    -1.5520     0.5180 ca         1 14S       0.468900
     15 N4           0.7600    -2.8640     0.2930 nu         1 14S      -0.909100
     16 C8           1.8210    -3.8180     0.5110 c5         1 14S       0.234500
     17 C14          2.9060    -3.8600    -0.5650 c5         1 14S      -0.095900
     18 C18          3.6350    -5.1650    -0.2530 c5         1 14S      -0.078400
     19 C17          2.5410    -6.1260     0.2690 c5         1 14S      -0.078400
     20 C13          1.2990    -5.2540     0.5330 c5         1 14S      -0.095900
     21 C5           0.1030     0.6880     0.5150 ca         1 14S       0.199900
     22 N9           1.2510     1.1350     0.9870 nb         1 14S      -0.277000
     23 C7           2.1720     0.1930     1.2320 ca         1 14S       0.446900
     24 N3           2.0300    -1.1120     1.0120 nb         1 14S      -0.356000
     25 N12          3.3460     0.5710     1.7670 nu         1 14S      -0.904100
     26 C16          3.8390     1.9280     1.8290 c3         1 14S       0.287100
     27 C20          5.0450     2.1330     0.9490 ca         1 14S      -0.162300
     28 C23          6.2830     2.4200     1.5040 ca         1 14S      -0.064000
     29 C27          7.4150     2.5910     0.7130 ca         1 14S      -0.153000
     30 C30          7.3010     2.4620    -0.6600 ca         1 14S      -0.063000
     31 C25          6.0720     2.1710    -1.2460 ca         1 14S      -0.204000
     32 C22          4.9440     2.0100    -0.4470 ca         1 14S       0.161100
     33 O26          3.7170     1.7400    -0.9210 os         1 14S      -0.331100
     34 C31          3.5470     1.5300    -2.3070 c3         1 14S       0.147900
     35 H1          -8.5810     4.1370    -0.9060 hc         1 14S       0.076700
     36 H2          -9.6640     2.7570    -0.7760 hc         1 14S       0.076700
     37 H3          -7.5830     3.6910     1.2360 hc         1 14S       0.057200
     38 H4          -9.1830     3.0450     1.5900 hc         1 14S       0.057200
     39 H5          -6.9150     1.4790     1.7610 h1         1 14S       0.045700
     40 H6          -8.4450     0.7780     1.2270 h1         1 14S       0.045700
     41 H7          -6.5880    -0.6120    -0.1080 h1         1 14S       0.058700
     42 H8          -6.3010     0.0760    -1.6980 h1         1 14S       0.058700
     43 H9          -4.4670     1.4830    -0.7910 hc         1 14S       0.050700
     44 H10         -4.7840     0.8830     0.8330 hc         1 14S       0.050700
     45 H11         -4.2670    -1.4500     0.0560 h1         1 14S       0.051700
     46 H12         -3.8810    -0.8190    -1.5370 h1         1 14S       0.051700
     47 H13         -2.4480     0.5070     0.6180 hn         1 14S       0.312500
     48 H14         -0.0730    -3.1600    -0.1970 hn         1 14S       0.532000
     49 H15          2.2940    -3.5910     1.4710 h1         1 14S       0.074700
     50 H16          2.4320    -3.9030    -1.5500 hc         1 14S       0.051950
     51 H17          3.5530    -2.9830    -0.5430 hc         1 14S       0.051950
     52 H18          4.1650    -5.5660    -1.1170 hc         1 14S       0.042950
     53 H19          4.3830    -4.9920     0.5230 hc         1 14S       0.042950
     54 H20          2.3180    -6.9070    -0.4580 hc         1 14S       0.042950
     55 H21          2.8700    -6.6320     1.1770 hc         1 14S       0.042950
     56 H22          0.7960    -5.5000     1.4680 hc         1 14S       0.051950
     57 H23          0.5680    -5.3840    -0.2710 hc         1 14S       0.051950
     58 H24         -0.6340     1.4570     0.3010 h4         1 14S       0.009100
     59 H25          4.0200    -0.1680     1.8910 hn         1 14S       0.497000
     60 H26          3.0240     2.5930     1.5500 h1         1 14S       0.070700
     61 H27          4.1120     2.1710     2.8590 h1         1 14S       0.070700
     62 H28          6.3630     2.5090     2.5810 ha         1 14S       0.112000
     63 H29          8.3700     2.8170     1.1680 ha         1 14S       0.117000
     64 H30          8.1680     2.5870    -1.2960 ha         1 14S       0.112000
     65 H31          6.0120     2.0800    -2.3220 ha         1 14S       0.119000
     66 H32          3.8030     2.4170    -2.8910 h1         1 14S       0.042367
     67 H33          4.1420     0.6870    -2.6670 h1         1 14S       0.042367
     68 H34          2.4940     1.3040    -2.4550 h1         1 14S       0.042367
@<TRIPOS>BOND
     1     1     2 2   
     2     2     3 1   
     3     2     6 1   
     4     3     4 1   
     5     3    35 1   
     6     3    36 1   
     7     4     5 1   
     8     4    37 1   
     9     4    38 1   
    10     5     6 1   
    11     5    39 1   
    12     5    40 1   
    13     6     7 1   
    14     7     8 1   
    15     7    41 1   
    16     7    42 1   
    17     8     9 1   
    18     8    43 1   
    19     8    44 1   
    20     9    10 1   
    21     9    45 1   
    22     9    46 1   
    23    10    11 1   
    24    10    47 1   
    25    11    12 2   
    26    11    13 1   
    27    13    14 ar  
    28    13    21 ar  
    29    14    15 1   
    30    14    24 ar  
    31    15    16 1   
    32    15    48 1   
    33    16    17 1   
    34    16    20 1   
    35    16    49 1   
    36    17    18 1   
    37    17    50 1   
    38    17    51 1   
    39    18    19 1   
    40    18    52 1   
    41    18    53 1   
    42    19    20 1   
    43    19    54 1   
    44    19    55 1   
    45    20    56 1   
    46    20    57 1   
    47    21    22 ar  
    48    21    58 1   
    49    22    23 ar  
    50    23    24 ar  
    51    23    25 1   
    52    25    26 1   
    53    25    59 1   
    54    26    27 1   
    55    26    60 1   
    56    26    61 1   
    57    27    28 ar  
    58    27    32 ar  
    59    28    29 ar  
    60    28    62 1   
    61    29    30 ar  
    62    29    63 1   
    63    30    31 ar  
    64    30    64 1   
    65    31    32 ar  
    66    31    65 1   
    67    32    33 1   
    68    33    34 1   
    69    34    66 1   
    70    34    67 1   
    71    34    68 1   
@<TRIPOS>SUBSTRUCTURE
     1 14S         1 TEMP              0 ****  ****    0 ROOT
