@<TRIPOS>MOLECULE
14S
   68    71     1     0     0
SMALL
No Charge or Current Charge


@<TRIPOS>ATOM
      1 O33         -7.8290     1.4300    -1.9530 o          1 14S      -0.551000
      2 C28         -8.1580     1.5080    -0.7780 c          1 14S       0.563000
      3 C32         -9.0240     2.5550    -0.0840 c5         1 14S      -0.168400
      4 C34         -8.2450     2.8280     1.2300 c5         1 14S      -0.091400
      5 C29         -7.7920     1.3830     1.6070 c5         1 14S       0.097000
      6 N24         -7.5770     0.7910     0.2710 n          1 14S      -0.421800
      7 C21         -6.6580    -0.3330     0.0050 c3         1 14S       0.112000
      8 C19         -5.1740     0.0780     0.0700 c3         1 14S      -0.117400
      9 C15         -4.2230    -1.0950    -0.2230 c3         1 14S       0.106000
     10 N10         -2.8230    -0.6790    -0.1560 ns         1 14S      -0.499900
     11 C6          -1.7550    -1.5210    -0.3430 c          1 14S       0.647700
     12 O11         -1.9250    -2.7060    -0.5900 o          1 14S      -0.652100
     13 C2          -0.3940    -0.8980    -0.2350 ca         1 14S      -0.410600
     14 C1           0.7950    -1.6380    -0.3510 ca         1 14S       0.468900
     15 N4           0.7690    -3.0030    -0.5800 nu         1 14S      -0.909100
     16 C8           1.5830    -3.7610     0.4010 c5         1 14S       0.234500
     17 C14          2.7960    -4.3100    -0.3890 c5         1 14S      -0.095900
     18 C18          3.2260    -5.5120     0.5040 c5         1 14S      -0.078400
     19 C17          1.9120    -5.9750     1.2230 c5         1 14S      -0.078400
     20 C13          0.7970    -5.0740     0.6190 c5         1 14S      -0.095900
     21 C5          -0.2430     0.4850    -0.0110 ca         1 14S       0.199900
     22 N9           0.9660     1.0640     0.0800 nb         1 14S      -0.277000
     23 C7           2.0240     0.2540    -0.0570 ca         1 14S       0.446900
     24 N3           2.0050    -1.0620    -0.2700 nb         1 14S      -0.356000
     25 N12          3.2840     0.8110     0.0290 nu         1 14S      -0.904100
     26 C16          3.6270     2.2260     0.2180 c3         1 14S       0.287100
     27 C20          5.1420     2.3800     0.2890 ca         1 14S      -0.162300
     28 C23          5.8110     2.0190     1.4760 ca         1 14S      -0.064000
     29 C27          7.2050     2.1510     1.5750 ca         1 14S      -0.153000
     30 C30          7.9430     2.6450     0.4900 ca         1 14S      -0.063000
     31 C25          7.2870     3.0090    -0.6970 ca         1 14S      -0.204000
     32 C22          5.8830     2.8790    -0.8060 ca         1 14S       0.161100
     33 O26          5.2090     3.2290    -1.9610 os         1 14S      -0.331100
     34 C31          5.8820     3.7380    -3.1260 c3         1 14S       0.147900
     35 H1          -9.2020     3.4270    -0.7210 hc         1 14S       0.076700
     36 H2          -9.9780     2.0840     0.1790 hc         1 14S       0.076700
     37 H3          -7.3780     3.4750     1.0470 hc         1 14S       0.057200
     38 H4          -8.8560     3.2990     2.0080 hc         1 14S       0.057200
     39 H5          -6.8820     1.3820     2.2220 h1         1 14S       0.045700
     40 H6          -8.5800     0.8400     2.1460 h1         1 14S       0.045700
     41 H7          -6.8470    -1.1170     0.7500 h1         1 14S       0.058700
     42 H8          -6.8770    -0.7620    -0.9820 h1         1 14S       0.058700
     43 H9          -4.9930     0.8810    -0.6550 hc         1 14S       0.050700
     44 H10         -4.9520     0.4820     1.0650 hc         1 14S       0.050700
     45 H11         -4.3900    -1.8980     0.5080 h1         1 14S       0.051700
     46 H12         -4.4260    -1.4940    -1.2270 h1         1 14S       0.051700
     47 H13         -2.6150     0.2890     0.0440 hn         1 14S       0.312500
     48 H14         -0.2060    -3.2990    -0.7080 hn         1 14S       0.532000
     49 H15          1.8360    -3.2450     1.3420 h1         1 14S       0.074700
     50 H16          2.5200    -4.6520    -1.3940 hc         1 14S       0.051950
     51 H17          3.5940    -3.5680    -0.5050 hc         1 14S       0.051950
     52 H18          3.6730    -6.3150    -0.0940 hc         1 14S       0.042950
     53 H19          3.9810    -5.2080     1.2390 hc         1 14S       0.042950
     54 H20          1.7060    -7.0400     1.0640 hc         1 14S       0.042950
     55 H21          1.9920    -5.8250     2.3060 hc         1 14S       0.042950
     56 H22         -0.0540    -4.9500     1.2980 hc         1 14S       0.051950
     57 H23          0.4150    -5.5020    -0.3160 hc         1 14S       0.051950
     58 H24         -1.0920     1.1570     0.0960 h4         1 14S       0.009100
     59 H25          4.0550     0.1610    -0.1100 hn         1 14S       0.497000
     60 H26          3.2110     2.8340    -0.5970 h1         1 14S       0.070700
     61 H27          3.1870     2.6000     1.1540 h1         1 14S       0.070700
     62 H28          5.2480     1.6330     2.3240 ha         1 14S       0.112000
     63 H29          7.7140     1.8690     2.4950 ha         1 14S       0.117000
     64 H30          9.0240     2.7470     0.5690 ha         1 14S       0.112000
     65 H31          7.8850     3.3890    -1.5200 ha         1 14S       0.119000
     66 H32          6.4110     4.6720    -2.8950 h1         1 14S       0.042367
     67 H33          6.6050     3.0070    -3.5090 h1         1 14S       0.042367
     68 H34          5.1570     3.9470    -3.9230 h1         1 14S       0.042367
@<TRIPOS>BOND
     1     1     2 2   
     2     2     3 1   
     3     2     6 1   
     4     3     4 1   
     5     3    35 1   
     6     3    36 1   
     7     4     5 1   
     8     4    37 1   
     9     4    38 1   
    10     5     6 1   
    11     5    39 1   
    12     5    40 1   
    13     6     7 1   
    14     7     8 1   
    15     7    41 1   
    16     7    42 1   
    17     8     9 1   
    18     8    43 1   
    19     8    44 1   
    20     9    10 1   
    21     9    45 1   
    22     9    46 1   
    23    10    11 1   
    24    10    47 1   
    25    11    12 2   
    26    11    13 1   
    27    13    14 ar  
    28    13    21 ar  
    29    14    15 1   
    30    14    24 ar  
    31    15    16 1   
    32    15    48 1   
    33    16    17 1   
    34    16    20 1   
    35    16    49 1   
    36    17    18 1   
    37    17    50 1   
    38    17    51 1   
    39    18    19 1   
    40    18    52 1   
    41    18    53 1   
    42    19    20 1   
    43    19    54 1   
    44    19    55 1   
    45    20    56 1   
    46    20    57 1   
    47    21    22 ar  
    48    21    58 1   
    49    22    23 ar  
    50    23    24 ar  
    51    23    25 1   
    52    25    26 1   
    53    25    59 1   
    54    26    27 1   
    55    26    60 1   
    56    26    61 1   
    57    27    28 ar  
    58    27    32 ar  
    59    28    29 ar  
    60    28    62 1   
    61    29    30 ar  
    62    29    63 1   
    63    30    31 ar  
    64    30    64 1   
    65    31    32 ar  
    66    31    65 1   
    67    32    33 1   
    68    33    34 1   
    69    34    66 1   
    70    34    67 1   
    71    34    68 1   
@<TRIPOS>SUBSTRUCTURE
     1 14S         1 TEMP              0 ****  ****    0 ROOT
