@<TRIPOS>MOLECULE
14T
   40    41     1     0     0
SMALL
abcg2


@<TRIPOS>ATOM
      1 F1           2.7730    -4.3690    -0.2310 f          1 14T      -0.108000
      2 C7           2.1020    -3.4390     0.4830 c3         1 14T       0.095300
      3 F2           2.8160    -3.1950     1.6140 f          1 14T      -0.108000
      4 C8           1.9570    -2.1750    -0.3680 c          1 14T       0.562100
      5 O5           1.7700    -2.2870    -1.5640 o          1 14T      -0.546100
      6 N1           2.0010    -1.0270     0.3160 ns         1 14T      -0.482900
      7 C5           1.7740     0.2630    -0.2850 c6         1 14T       0.085700
      8 C6           2.7720     1.2880     0.2430 c6         1 14T       0.165300
      9 O3           4.0540     0.8770    -0.1410 oh         1 14T      -0.640000
     10 C2           2.4350     2.6830    -0.2820 c6         1 14T       0.099300
     11 O2           3.3240     3.5790     0.3410 oh         1 14T      -0.720000
     12 C3           0.9720     3.0100     0.0320 c6         1 14T       0.148300
     13 C4           0.5320     4.3480    -0.5170 c3         1 14T       0.171600
     14 O4          -0.7950     4.5810    -0.1150 oh         1 14T      -0.708000
     15 O1           0.1550     2.0120    -0.5540 os         1 14T      -0.455000
     16 C1           0.3540     0.7540     0.0090 c6         1 14T       0.380300
     17 O6          -0.5330    -0.1340    -0.5830 os         1 14T      -0.318100
     18 C10         -1.8150    -0.1830    -0.1400 ca         1 14T       0.143100
     19 C9          -2.4940    -1.3700    -0.4090 ca         1 14T      -0.160000
     20 C14         -3.8040    -1.5000    -0.0110 ca         1 14T       0.162000
     21 F3          -4.4670    -2.6320    -0.2620 f          1 14T      -0.158000
     22 C11         -2.4580     0.8560     0.5240 ca         1 14T      -0.164000
     23 C12         -3.7780     0.6950     0.9290 ca         1 14T      -0.099000
     24 C13         -4.4500    -0.4750     0.6610 ca         1 14T       0.103000
     25 F4          -5.7250    -0.6370     1.0360 f          1 14T      -0.162000
     26 H7           1.1280    -3.8410     0.7670 h2         1 14T       0.077700
     27 H1           2.1870    -1.0530     1.3070 hn         1 14T       0.328500
     28 H5           1.8910     0.1680    -1.3680 h1         1 14T       0.121700
     29 H6           2.6820     1.3200     1.3430 h1         1 14T       0.040700
     30 HA           0.1940     0.7880     1.1010 h2         1 14T       0.033700
     31 H3           4.6860     1.5200     0.2010 ho         1 14T       0.463000
     32 H2           2.5660     2.6840    -1.3740 h1         1 14T       0.065700
     33 HB           3.4980     4.3140    -0.2540 ho         1 14T       0.516000
     34 HC           0.8350     3.0150     1.1260 h1         1 14T       0.061700
     35 H41C         1.2120     5.1180    -0.1340 h1         1 14T       0.030700
     36 H42C         0.6360     4.3400    -1.6110 h1         1 14T       0.030700
     37 H4          -1.0640     5.4380    -0.4580 ho         1 14T       0.510000
     38 H9          -1.9970    -2.1850    -0.9200 ha         1 14T       0.152000
     39 H11         -1.9720     1.8040     0.7080 ha         1 14T       0.147000
     40 H12         -4.2870     1.4990     1.4460 ha         1 14T       0.136000
@<TRIPOS>BOND
     1     1     2 1   
     2     2     3 1   
     3     2     4 1   
     4     2    26 1   
     5     4     5 2   
     6     4     6 1   
     7     6     7 1   
     8     6    27 1   
     9     7     8 1   
    10     7    16 1   
    11     7    28 1   
    12     8     9 1   
    13     8    10 1   
    14     8    29 1   
    15     9    31 1   
    16    10    11 1   
    17    10    12 1   
    18    10    32 1   
    19    11    33 1   
    20    12    13 1   
    21    12    15 1   
    22    12    34 1   
    23    13    14 1   
    24    13    35 1   
    25    13    36 1   
    26    14    37 1   
    27    15    16 1   
    28    16    17 1   
    29    16    30 1   
    30    17    18 1   
    31    18    19 ar  
    32    18    22 ar  
    33    19    20 ar  
    34    19    38 1   
    35    20    21 1   
    36    20    24 ar  
    37    22    23 ar  
    38    22    39 1   
    39    23    24 ar  
    40    23    40 1   
    41    24    25 1   
@<TRIPOS>SUBSTRUCTURE
     1 14T         1 TEMP              0 ****  ****    0 ROOT
