@<TRIPOS>MOLECULE
14U
   57    56     1     0     0
SMALL
No Charge or Current Charge


@<TRIPOS>ATOM
      1 CAA         12.8340     0.1480    -0.3970 c3         1 14U      -0.088100
      2 CAB         -8.8560     1.0460     0.9940 c3         1 14U      -0.045100
      3 OAC         -8.7520    -1.1980    -0.9700 o          1 14U      -0.723000
      4 OAD         -6.5700    -0.8570     1.2220 o          1 14U      -0.579100
      5 CAE         -8.2790    -0.1030    -1.2270 c          1 14U       0.735000
      6 CAF         11.5370    -0.5280     0.0890 c3         1 14U      -0.075400
      7 CAG         10.2620     0.2320    -0.3370 c3         1 14U      -0.075400
      8 CAH          8.9630    -0.4460     0.1510 c3         1 14U      -0.075400
      9 CAI          7.6880     0.3140    -0.2760 c3         1 14U      -0.073400
     10 CAJ          6.3890    -0.3640     0.2120 c3         1 14U      -0.075400
     11 CAK          5.1140     0.3960    -0.2150 c3         1 14U      -0.073400
     12 CAL          3.8140    -0.2820     0.2730 c3         1 14U      -0.075400
     13 CAM          2.5390     0.4780    -0.1540 c3         1 14U      -0.073400
     14 CAN          1.2400    -0.2000     0.3340 c3         1 14U      -0.075400
     15 CAO         -0.0350     0.5600    -0.0920 c3         1 14U      -0.074400
     16 CAP         -1.3340    -0.1180     0.3950 c3         1 14U      -0.074400
     17 CAQ         -2.6090     0.6420    -0.0310 c3         1 14U      -0.075400
     18 CAR         -3.9080    -0.0350     0.4570 c3         1 14U      -0.060400
     19 CAS         -5.1830     0.7310     0.0280 c3         1 14U      -0.178400
     20 CAT         -6.5220     0.1110     0.4700 c          1 14U       0.624100
     21 CAU         -7.7790     0.7720    -0.0860 c3         1 14U      -0.310700
     22 HAA         12.9180     1.1630     0.0090 hc         1 14U       0.030033
     23 HAAA        13.7090    -0.4260    -0.0710 hc         1 14U       0.030033
     24 HAAB        12.8520     0.2090    -1.4920 hc         1 14U       0.030033
     25 HAB         -9.1920     0.1160     1.4680 hc         1 14U       0.019367
     26 HABA        -8.4560     1.7030     1.7760 hc         1 14U       0.019367
     27 HABB        -9.7280     1.5390     0.5490 hc         1 14U       0.019367
     28 HAF         11.5000    -1.5510    -0.3040 hc         1 14U       0.035700
     29 HAFA        11.5650    -0.6060     1.1830 hc         1 14U       0.035700
     30 HAG         10.3040     1.2550     0.0560 hc         1 14U       0.036700
     31 HAGA        10.2390     0.3100    -1.4310 hc         1 14U       0.036700
     32 HAH          8.9210    -1.4690    -0.2430 hc         1 14U       0.036200
     33 HAHA         8.9860    -0.5240     1.2450 hc         1 14U       0.036200
     34 HAI          7.7300     1.3370     0.1180 hc         1 14U       0.036700
     35 HAIA         7.6640     0.3920    -1.3700 hc         1 14U       0.036700
     36 HAJ          6.3470    -1.3870    -0.1820 hc         1 14U       0.036200
     37 HAJA         6.4120    -0.4420     1.3060 hc         1 14U       0.036200
     38 HAK          5.1560     1.4190     0.1790 hc         1 14U       0.036200
     39 HAKA         5.0900     0.4740    -1.3090 hc         1 14U       0.036200
     40 HAL          3.7730    -1.3050    -0.1210 hc         1 14U       0.036200
     41 HALA         3.8380    -0.3600     1.3670 hc         1 14U       0.036200
     42 HAM          2.5810     1.5010     0.2400 hc         1 14U       0.035700
     43 HAMA         2.5160     0.5560    -1.2480 hc         1 14U       0.035700
     44 HAN          1.1980    -1.2230    -0.0600 hc         1 14U       0.035200
     45 HANA         1.2640    -0.2780     1.4280 hc         1 14U       0.035200
     46 HAO          0.0070     1.5830     0.3020 hc         1 14U       0.034700
     47 HAOA        -0.0580     0.6380    -1.1860 hc         1 14U       0.034700
     48 HAP         -1.3760    -1.1410     0.0010 hc         1 14U       0.035700
     49 HAPA        -1.3100    -0.1970     1.4900 hc         1 14U       0.035700
     50 HAQ         -2.5670     1.6650     0.3630 hc         1 14U       0.032200
     51 HAQA        -2.6330     0.7200    -1.1250 hc         1 14U       0.032200
     52 HAR         -3.9520    -1.0580     0.0610 hc         1 14U       0.045700
     53 HARA        -3.8840    -0.1140     1.5510 hc         1 14U       0.045700
     54 HAS         -5.1690     1.7680     0.3820 hc         1 14U       0.057200
     55 HASA        -5.2230     0.8820    -1.0570 hc         1 14U       0.057200
     56 HAU         -7.4740     1.7280    -0.5300 hc         1 14U       0.035700
     57 O3          -8.2030     0.3480    -2.3590 o          1 14U      -0.723000
@<TRIPOS>BOND
     1     1     6 1   
     2     1    22 1   
     3     1    23 1   
     4     1    24 1   
     5     2    21 1   
     6     2    25 1   
     7     2    26 1   
     8     2    27 1   
     9     3     5 1   
    10     4    20 2   
    11     5    21 1   
    12     5    57 1   
    13     6     7 1   
    14     6    28 1   
    15     6    29 1   
    16     7     8 1   
    17     7    30 1   
    18     7    31 1   
    19     8     9 1   
    20     8    32 1   
    21     8    33 1   
    22     9    10 1   
    23     9    34 1   
    24     9    35 1   
    25    10    11 1   
    26    10    36 1   
    27    10    37 1   
    28    11    12 1   
    29    11    38 1   
    30    11    39 1   
    31    12    13 1   
    32    12    40 1   
    33    12    41 1   
    34    13    14 1   
    35    13    42 1   
    36    13    43 1   
    37    14    15 1   
    38    14    44 1   
    39    14    45 1   
    40    15    16 1   
    41    15    46 1   
    42    15    47 1   
    43    16    17 1   
    44    16    48 1   
    45    16    49 1   
    46    17    18 1   
    47    17    50 1   
    48    17    51 1   
    49    18    19 1   
    50    18    52 1   
    51    18    53 1   
    52    19    20 1   
    53    19    54 1   
    54    19    55 1   
    55    20    21 1   
    56    21    56 1   
@<TRIPOS>SUBSTRUCTURE
     1 14U         1 TEMP              0 ****  ****    0 ROOT
