@<TRIPOS>MOLECULE
14U
   57    56     1     0     0
SMALL
bcc


@<TRIPOS>ATOM
      1 CAA         12.7030     0.0690    -0.1020 c3         1 14U      -0.088100
      2 CAB         -8.6950     0.8900     1.2780 c3         1 14U      -0.045100
      3 OAC         -7.3040    -0.5530    -1.7130 o          1 14U      -0.828300
      4 OAD         -6.3710    -0.7560     1.3860 o          1 14U      -0.579100
      5 CAE         -8.1440     0.1440    -1.1090 c          1 14U       0.945600
      6 CAF         11.3800    -0.4870     0.4060 c3         1 14U      -0.075400
      7 CAG         10.1670     0.1770    -0.2340 c3         1 14U      -0.075400
      8 CAH          8.8430    -0.3770     0.2750 c3         1 14U      -0.075400
      9 CAI          7.6220     0.2770    -0.3580 c3         1 14U      -0.073400
     10 CAJ          6.3080    -0.2900     0.1650 c3         1 14U      -0.075400
     11 CAK          5.0710     0.3520    -0.4480 c3         1 14U      -0.073400
     12 CAL          3.7740    -0.2300     0.0990 c3         1 14U      -0.075400
     13 CAM          2.5160     0.4100    -0.4760 c3         1 14U      -0.073400
     14 CAN          1.2380    -0.1830     0.1020 c3         1 14U      -0.075400
     15 CAO         -0.0360     0.4790    -0.4070 c3         1 14U      -0.074400
     16 CAP         -1.2980    -0.1260     0.1950 c3         1 14U      -0.074400
     17 CAQ         -2.5750     0.6020    -0.2050 c3         1 14U      -0.075400
     18 CAR         -3.8280    -0.0330     0.3880 c3         1 14U      -0.060400
     19 CAS         -5.0820     0.7690     0.0880 c3         1 14U      -0.178400
     20 CAT         -6.3630     0.1860     0.6210 c          1 14U       0.624100
     21 CAU         -7.6420     0.8570     0.1800 c3         1 14U      -0.310700
     22 HAA         12.7860     1.1380     0.1040 hc         1 14U       0.030033
     23 HAAA        13.5530    -0.4250     0.3680 hc         1 14U       0.030033
     24 HAAB        12.7980    -0.0630    -1.1810 hc         1 14U       0.030033
     25 HAB         -8.9990    -0.1130     1.5760 hc         1 14U       0.019367
     26 HABA        -8.3300     1.4050     2.1690 hc         1 14U       0.019367
     27 HABB        -9.5820     1.4190     0.9340 hc         1 14U       0.019367
     28 HAF         11.3400    -1.5650     0.2200 hc         1 14U       0.035700
     29 HAFA        11.3250    -0.3680     1.4930 hc         1 14U       0.035700
     30 HAG         10.2060     1.2560    -0.0490 hc         1 14U       0.036700
     31 HAGA        10.2200     0.0560    -1.3220 hc         1 14U       0.036700
     32 HAH          8.8090    -1.4580     0.0930 hc         1 14U       0.036200
     33 HAHA         8.7940    -0.2560     1.3630 hc         1 14U       0.036200
     34 HAI          7.6520     1.3570    -0.1750 hc         1 14U       0.036700
     35 HAIA         7.6650     0.1540    -1.4460 hc         1 14U       0.036700
     36 HAJ          6.2820    -1.3700    -0.0180 hc         1 14U       0.036200
     37 HAJA         6.2730    -0.1710     1.2540 hc         1 14U       0.036200
     38 HAK          5.0920     1.4330    -0.2640 hc         1 14U       0.036200
     39 HAKA         5.0970     0.2320    -1.5370 hc         1 14U       0.036200
     40 HAL          3.7520    -1.3080    -0.0930 hc         1 14U       0.036200
     41 HALA         3.7630    -0.1210     1.1900 hc         1 14U       0.036200
     42 HAM          2.5370     1.4880    -0.2820 hc         1 14U       0.035700
     43 HAMA         2.5130     0.3000    -1.5660 hc         1 14U       0.035700
     44 HAN          1.2040    -1.2560    -0.1180 hc         1 14U       0.035200
     45 HANA         1.2690    -0.1030     1.1950 hc         1 14U       0.035200
     46 HAO         -0.0010     1.5500    -0.1770 hc         1 14U       0.034700
     47 HAOA        -0.0790     0.4070    -1.4990 hc         1 14U       0.034700
     48 HAP         -1.3710    -1.1800    -0.0950 hc         1 14U       0.035700
     49 HAPA        -1.2130    -0.1190     1.2870 hc         1 14U       0.035700
     50 HAQ         -2.5060     1.6470     0.1150 hc         1 14U       0.032200
     51 HAQA        -2.6600     0.6260    -1.2970 hc         1 14U       0.032200
     52 HAR         -3.9380    -1.0500     0.0020 hc         1 14U       0.045700
     53 HARA        -3.7050    -0.1290     1.4700 hc         1 14U       0.045700
     54 HAS         -4.9960     1.7780     0.5110 hc         1 14U       0.057200
     55 HASA        -5.2080     0.9240    -0.9870 hc         1 14U       0.057200
     56 HAU         -7.4020     1.8880    -0.1120 hc         1 14U       0.035700
     57 O3          -9.3250     0.3420    -1.4320 o          1 14U      -0.828300
@<TRIPOS>BOND
     1     1     6 1   
     2     1    22 1   
     3     1    23 1   
     4     1    24 1   
     5     2    21 1   
     6     2    25 1   
     7     2    26 1   
     8     2    27 1   
     9     3     5 1   
    10     4    20 2   
    11     5    21 1   
    12     5    57 1   
    13     6     7 1   
    14     6    28 1   
    15     6    29 1   
    16     7     8 1   
    17     7    30 1   
    18     7    31 1   
    19     8     9 1   
    20     8    32 1   
    21     8    33 1   
    22     9    10 1   
    23     9    34 1   
    24     9    35 1   
    25    10    11 1   
    26    10    36 1   
    27    10    37 1   
    28    11    12 1   
    29    11    38 1   
    30    11    39 1   
    31    12    13 1   
    32    12    40 1   
    33    12    41 1   
    34    13    14 1   
    35    13    42 1   
    36    13    43 1   
    37    14    15 1   
    38    14    44 1   
    39    14    45 1   
    40    15    16 1   
    41    15    46 1   
    42    15    47 1   
    43    16    17 1   
    44    16    48 1   
    45    16    49 1   
    46    17    18 1   
    47    17    50 1   
    48    17    51 1   
    49    18    19 1   
    50    18    52 1   
    51    18    53 1   
    52    19    20 1   
    53    19    54 1   
    54    19    55 1   
    55    20    21 1   
    56    21    56 1   
@<TRIPOS>SUBSTRUCTURE
     1 14U         1 TEMP              0 ****  ****    0 ROOT
