@<TRIPOS>MOLECULE
14V
   59    58     1     0     0
SMALL
No Charge or Current Charge


@<TRIPOS>ATOM
      1 CAA         13.5360     0.2970    -0.6560 c3         1 14V      -0.088100
      2 OAB         -7.9430     1.9550    -0.1450 o          1 14V      -0.718000
      3 OAC         -5.4580    -0.5880    -1.7970 o          1 14V      -0.572100
      4 OAD         -6.0440     0.1830     1.8490 o          1 14V      -0.519100
      5 CAE         -7.5320     1.5900    -1.2320 c          1 14V       0.734000
      6 CAF         12.1460     0.9010    -0.9320 c3         1 14V      -0.075400
      7 CAG         10.9920     0.0520    -0.3560 c3         1 14V      -0.075400
      8 CAH          9.5990     0.6580    -0.6340 c3         1 14V      -0.074400
      9 CAI          8.4450    -0.1910    -0.0580 c3         1 14V      -0.074400
     10 CAJ          7.0510     0.4140    -0.3350 c3         1 14V      -0.074400
     11 CAK          5.8970    -0.4350     0.2410 c3         1 14V      -0.074400
     12 CAL          4.5040     0.1710    -0.0360 c3         1 14V      -0.074400
     13 CAM          3.3500    -0.6780     0.5400 c3         1 14V      -0.074400
     14 CAN          1.9570    -0.0730     0.2630 c3         1 14V      -0.074400
     15 CAO          0.8030    -0.9220     0.8390 c3         1 14V      -0.074400
     16 CAP         -0.5900    -0.3160     0.5620 c3         1 14V      -0.075400
     17 CAQ         -1.7440    -1.1660     1.1380 c3         1 14V      -0.076400
     18 CAR         -3.1370    -0.5610     0.8610 c3         1 14V      -0.063400
     19 CAS         -7.7280     0.1410    -1.6080 c3         1 14V      -0.333400
     20 CAT         -4.2910    -1.4160     1.4390 c3         1 14V      -0.183400
     21 CAU         -6.5690    -1.4100     0.1440 c3         1 14V      -0.297400
     22 CAV         -6.4820    -0.5840    -1.1280 c          1 14V       0.632100
     23 CAW         -5.6670    -0.7750     1.1900 c          1 14V       0.593100
     24 HAA         13.7140     0.2100     0.4230 hc         1 14V       0.030033
     25 HAAA        13.6220    -0.7010    -1.1030 hc         1 14V       0.030033
     26 HAAB        14.3210     0.9330    -1.0820 hc         1 14V       0.030033
     27 O4          -6.9440     2.3140    -2.0180 o          1 14V      -0.718000
     28 HAF         12.1050     1.9100    -0.5040 hc         1 14V       0.036700
     29 HAFA        12.0140     1.0080    -2.0160 hc         1 14V       0.036700
     30 HAG         11.0380    -0.9570    -0.7850 hc         1 14V       0.036700
     31 HAGA        11.1290    -0.0540     0.7270 hc         1 14V       0.036700
     32 HAH          9.5530     1.6670    -0.2050 hc         1 14V       0.036700
     33 HAHA         9.4620     0.7640    -1.7170 hc         1 14V       0.036700
     34 HAI          8.4910    -1.2000    -0.4870 hc         1 14V       0.036700
     35 HAIA         8.5820    -0.2970     1.0260 hc         1 14V       0.036700
     36 HAJ          7.0050     1.4230     0.0940 hc         1 14V       0.036700
     37 HAJA         6.9140     0.5200    -1.4190 hc         1 14V       0.036700
     38 HAK          5.9430    -1.4440    -0.1880 hc         1 14V       0.036200
     39 HAKA         6.0350    -0.5410     1.3250 hc         1 14V       0.036200
     40 HAL          4.4580     1.1800     0.3930 hc         1 14V       0.037200
     41 HALA         4.3670     0.2770    -1.1200 hc         1 14V       0.037200
     42 HAM          3.3960    -1.6870     0.1110 hc         1 14V       0.036200
     43 HAMA         3.4870    -0.7840     1.6240 hc         1 14V       0.036200
     44 HAN          1.9110     0.9360     0.6920 hc         1 14V       0.036700
     45 HANA         1.8200     0.0330    -0.8210 hc         1 14V       0.036700
     46 HAO          0.8490    -1.9310     0.4100 hc         1 14V       0.035200
     47 HAOA         0.9400    -1.0280     1.9230 hc         1 14V       0.035200
     48 HAP         -0.6370     0.6920     0.9910 hc         1 14V       0.038200
     49 HAPA        -0.7280    -0.2100    -0.5220 hc         1 14V       0.038200
     50 HAQ         -1.6970    -2.1750     0.7090 hc         1 14V       0.032700
     51 HAQA        -1.6060    -1.2720     2.2220 hc         1 14V       0.032700
     52 HAR         -3.1830     0.4470     1.2910 hc         1 14V       0.049700
     53 HARA        -3.2700    -0.4520    -0.2220 hc         1 14V       0.049700
     54 HAS         -8.5900    -0.2640    -1.0670 hc         1 14V       0.044700
     55 HASA        -7.7430     0.0350    -2.6990 hc         1 14V       0.044700
     56 HAT         -4.2430    -2.4080     0.9750 hc         1 14V       0.055700
     57 HATA        -4.1420    -1.5080     2.5220 hc         1 14V       0.055700
     58 HAU         -7.5950    -1.4180     0.5240 hc         1 14V       0.083700
     59 HAUA        -6.2040    -2.4130    -0.0970 hc         1 14V       0.083700
@<TRIPOS>BOND
     1     1     6 1   
     2     1    24 1   
     3     1    25 1   
     4     1    26 1   
     5     2     5 1   
     6     3    22 2   
     7     4    23 2   
     8     5    19 1   
     9     5    27 1   
    10     6     7 1   
    11     6    28 1   
    12     6    29 1   
    13     7     8 1   
    14     7    30 1   
    15     7    31 1   
    16     8     9 1   
    17     8    32 1   
    18     8    33 1   
    19     9    10 1   
    20     9    34 1   
    21     9    35 1   
    22    10    11 1   
    23    10    36 1   
    24    10    37 1   
    25    11    12 1   
    26    11    38 1   
    27    11    39 1   
    28    12    13 1   
    29    12    40 1   
    30    12    41 1   
    31    13    14 1   
    32    13    42 1   
    33    13    43 1   
    34    14    15 1   
    35    14    44 1   
    36    14    45 1   
    37    15    16 1   
    38    15    46 1   
    39    15    47 1   
    40    16    17 1   
    41    16    48 1   
    42    16    49 1   
    43    17    18 1   
    44    17    50 1   
    45    17    51 1   
    46    18    20 1   
    47    18    52 1   
    48    18    53 1   
    49    19    22 1   
    50    19    54 1   
    51    19    55 1   
    52    20    23 1   
    53    20    56 1   
    54    20    57 1   
    55    21    22 1   
    56    21    23 1   
    57    21    58 1   
    58    21    59 1   
@<TRIPOS>SUBSTRUCTURE
     1 14V         1 TEMP              0 ****  ****    0 ROOT
