@<TRIPOS>MOLECULE
14V
   59    58     1     0     0
SMALL
abcg2


@<TRIPOS>ATOM
      1 CAA         13.6720    -0.3070    -0.3530 c3         1 14V      -0.088100
      2 OAB         -9.4100     0.5050    -0.5200 o          1 14V      -0.718000
      3 OAC         -6.5190    -0.3480    -1.7370 o          1 14V      -0.572100
      4 OAD         -5.4540     1.4240     0.8120 o          1 14V      -0.519100
      5 CAE         -9.6360    -0.6930    -0.7660 c          1 14V       0.734000
      6 CAF         12.4030     0.5220    -0.2200 c3         1 14V      -0.075400
      7 CAG         11.1370    -0.3280    -0.2390 c3         1 14V      -0.075400
      8 CAH          9.8580     0.4900    -0.1140 c3         1 14V      -0.074400
      9 CAI          8.5950    -0.3620    -0.1270 c3         1 14V      -0.074400
     10 CAJ          7.3160     0.4570    -0.0100 c3         1 14V      -0.074400
     11 CAK          6.0520    -0.3950    -0.0130 c3         1 14V      -0.074400
     12 CAL          4.7730     0.4260     0.0980 c3         1 14V      -0.074400
     13 CAM          3.5090    -0.4250     0.1060 c3         1 14V      -0.074400
     14 CAN          2.2320     0.3990     0.2130 c3         1 14V      -0.074400
     15 CAO          0.9670    -0.4510     0.2340 c3         1 14V      -0.074400
     16 CAP         -0.3090     0.3740     0.3390 c3         1 14V      -0.075400
     17 CAQ         -1.5730    -0.4760     0.3780 c3         1 14V      -0.076400
     18 CAR         -2.8460     0.3550     0.4840 c3         1 14V      -0.063400
     19 CAS         -8.3890    -1.6040    -0.9580 c3         1 14V      -0.333400
     20 CAT         -4.0890    -0.5160     0.5470 c3         1 14V      -0.183400
     21 CAU         -6.6390    -0.6260     0.6240 c3         1 14V      -0.297400
     22 CAV         -7.1260    -0.8150    -0.7980 c          1 14V       0.632100
     23 CAW         -5.3910     0.2240     0.6760 c          1 14V       0.593100
     24 HAA         13.7580    -1.0300     0.4610 hc         1 14V       0.030033
     25 HAAA        13.6790    -0.8680    -1.2900 hc         1 14V       0.030033
     26 HAAB        14.5660     0.3170    -0.3360 hc         1 14V       0.030033
     27 O4         -10.7360    -1.2540    -0.8800 o          1 14V      -0.718000
     28 HAF         12.4350     1.1000     0.7090 hc         1 14V       0.036700
     29 HAFA        12.3570     1.2560    -1.0310 hc         1 14V       0.036700
     30 HAG         11.1080    -0.9110    -1.1670 hc         1 14V       0.036700
     31 HAGA        11.1830    -1.0600     0.5760 hc         1 14V       0.036700
     32 HAH          9.8900     1.0760     0.8110 hc         1 14V       0.036700
     33 HAHA         9.8120     1.2180    -0.9310 hc         1 14V       0.036700
     34 HAI          8.5650    -0.9520    -1.0500 hc         1 14V       0.036700
     35 HAIA         8.6390    -1.0870     0.6930 hc         1 14V       0.036700
     36 HAJ          7.3480     1.0520     0.9100 hc         1 14V       0.036700
     37 HAJA         7.2690     1.1770    -0.8340 hc         1 14V       0.036700
     38 HAK          6.0200    -0.9940    -0.9310 hc         1 14V       0.036200
     39 HAKA         6.0970    -1.1130     0.8140 hc         1 14V       0.036200
     40 HAL          4.8090     1.0300     1.0120 hc         1 14V       0.037200
     41 HALA         4.7260     1.1390    -0.7330 hc         1 14V       0.037200
     42 HAM          3.4750    -1.0320    -0.8060 hc         1 14V       0.036200
     43 HAMA         3.5550    -1.1340     0.9400 hc         1 14V       0.036200
     44 HAN          2.2700     1.0120     1.1200 hc         1 14V       0.036700
     45 HANA         2.1810     1.1020    -0.6260 hc         1 14V       0.036700
     46 HAO          0.9280    -1.0680    -0.6710 hc         1 14V       0.035200
     47 HAOA         1.0160    -1.1520     1.0750 hc         1 14V       0.035200
     48 HAP         -0.2650     0.9990     1.2380 hc         1 14V       0.038200
     49 HAPA        -0.3650     1.0680    -0.5080 hc         1 14V       0.038200
     50 HAQ         -1.6180    -1.1030    -0.5190 hc         1 14V       0.032700
     51 HAQA        -1.5160    -1.1670     1.2270 hc         1 14V       0.032700
     52 HAR         -2.7920     0.9890     1.3730 hc         1 14V       0.049700
     53 HARA        -2.9110     1.0320    -0.3730 hc         1 14V       0.049700
     54 HAS         -8.4310    -2.4210    -0.2330 hc         1 14V       0.044700
     55 HASA        -8.4210    -2.0490    -1.9550 hc         1 14V       0.044700
     56 HAT         -4.1560    -1.1660    -0.3330 hc         1 14V       0.055700
     57 HATA        -4.0300    -1.2080     1.3960 hc         1 14V       0.055700
     58 HAU         -7.4440    -0.1630     1.1990 hc         1 14V       0.083700
     59 HAUA        -6.4620    -1.6160     1.0550 hc         1 14V       0.083700
@<TRIPOS>BOND
     1     1     6 1   
     2     1    24 1   
     3     1    25 1   
     4     1    26 1   
     5     2     5 1   
     6     3    22 2   
     7     4    23 2   
     8     5    19 1   
     9     5    27 1   
    10     6     7 1   
    11     6    28 1   
    12     6    29 1   
    13     7     8 1   
    14     7    30 1   
    15     7    31 1   
    16     8     9 1   
    17     8    32 1   
    18     8    33 1   
    19     9    10 1   
    20     9    34 1   
    21     9    35 1   
    22    10    11 1   
    23    10    36 1   
    24    10    37 1   
    25    11    12 1   
    26    11    38 1   
    27    11    39 1   
    28    12    13 1   
    29    12    40 1   
    30    12    41 1   
    31    13    14 1   
    32    13    42 1   
    33    13    43 1   
    34    14    15 1   
    35    14    44 1   
    36    14    45 1   
    37    15    16 1   
    38    15    46 1   
    39    15    47 1   
    40    16    17 1   
    41    16    48 1   
    42    16    49 1   
    43    17    18 1   
    44    17    50 1   
    45    17    51 1   
    46    18    20 1   
    47    18    52 1   
    48    18    53 1   
    49    19    22 1   
    50    19    54 1   
    51    19    55 1   
    52    20    23 1   
    53    20    56 1   
    54    20    57 1   
    55    21    22 1   
    56    21    23 1   
    57    21    58 1   
    58    21    59 1   
@<TRIPOS>SUBSTRUCTURE
     1 14V         1 TEMP              0 ****  ****    0 ROOT
