@<TRIPOS>MOLECULE
14W
   28    28     1     0     0
SMALL
abcg2


@<TRIPOS>ATOM
      1 C2           3.7290     2.6840     1.8520 ca         1 14W      -0.090000
      2 C3           4.3100     3.0310     3.0650 ca         1 14W      -0.091300
      3 C4           4.1620     4.3380     3.5270 ca         1 14W      -0.075000
      4 C5           3.4360     5.2640     2.7950 ca         1 14W      -0.119000
      5 C6           2.8530     4.9010     1.5870 ca         1 14W      -0.097000
      6 C1           2.9960     3.6060     1.1060 ca         1 14W      -0.113300
      7 C7           2.4160     3.2110    -0.2230 c3         1 14W       0.265100
      8 N8           3.4510     3.2230    -1.2350 nu         1 14W      -0.959400
      9 C9           3.2200     2.8610    -2.5270 c2         1 14W       0.625200
     10 C10          4.3850     3.0990    -3.4450 c3         1 14W      -0.140400
     11 N11          2.1470     2.3370    -2.9870 n2         1 14W      -0.846100
     12 C12          5.0640     2.0060     3.8740 c3         1 14W       0.197100
     13 N13          6.2800     2.5590     4.4440 n8         1 14W      -1.000200
     14 H2           3.8440     1.6720     1.4780 ha         1 14W       0.115000
     15 H4           4.6220     4.6270     4.4640 ha         1 14W       0.131000
     16 H5           3.3230     6.2760     3.1640 ha         1 14W       0.115000
     17 H6           2.2860     5.6280     1.0180 ha         1 14W       0.113000
     18 H71          1.9890     2.2060    -0.1550 h1         1 14W       0.042200
     19 H72          1.5930     3.8870    -0.4870 h1         1 14W       0.042200
     20 H8           4.2510     3.8070    -1.0530 hn         1 14W       0.483000
     21 H101         4.6400     4.1600    -3.4790 hc         1 14W       0.054367
     22 H102         5.2720     2.5650    -3.0990 hc         1 14W       0.054367
     23 H103         4.1470     2.7680    -4.4520 hc         1 14W       0.054367
     24 H11          1.4280     2.2450    -2.2740 hn         1 14W       0.371400
     25 H121         4.4270     1.6780     4.7020 h1         1 14W       0.036200
     26 H122         5.2250     1.1150     3.2520 h1         1 14W       0.036200
     27 H131         6.9540     2.7250     3.7080 hn         1 14W       0.397500
     28 H132         6.7010     1.8780     5.0630 hn         1 14W       0.397500
@<TRIPOS>BOND
     1     1     2 ar  
     2     1     6 ar  
     3     1    14 1   
     4     2     3 ar  
     5     2    12 1   
     6     3     4 ar  
     7     3    15 1   
     8     4     5 ar  
     9     4    16 1   
    10     5     6 ar  
    11     5    17 1   
    12     6     7 1   
    13     7     8 1   
    14     7    18 1   
    15     7    19 1   
    16     8     9 1   
    17     8    20 1   
    18     9    10 1   
    19     9    11 2   
    20    10    21 1   
    21    10    22 1   
    22    10    23 1   
    23    11    24 1   
    24    12    13 1   
    25    12    25 1   
    26    12    26 1   
    27    13    27 1   
    28    13    28 1   
@<TRIPOS>SUBSTRUCTURE
     1 14W         1 TEMP              0 ****  ****    0 ROOT
