@<TRIPOS>MOLECULE
14W
   28    28     1     0     0
SMALL
No Charge or Current Charge


@<TRIPOS>ATOM
      1 C2           3.7090     2.6580     1.9700 ca         1 14W      -0.090000
      2 C3           4.2300     3.1070     3.2010 ca         1 14W      -0.091300
      3 C4           4.0320     4.4460     3.5880 ca         1 14W      -0.075000
      4 C5           3.3210     5.3270     2.7550 ca         1 14W      -0.119000
      5 C6           2.8040     4.8740     1.5290 ca         1 14W      -0.097000
      6 C1           2.9930     3.5360     1.1310 ca         1 14W      -0.113300
      7 C7           2.4330     3.0440    -0.1960 c3         1 14W       0.265100
      8 N8           3.4260     3.2490    -1.2570 nu         1 14W      -0.959400
      9 C9           3.2970     2.9380    -2.5810 c2         1 14W       0.625200
     10 C10          4.4780     3.2620    -3.4560 c3         1 14W      -0.140400
     11 N11          2.2200     2.4070    -2.9820 n2         1 14W      -0.846100
     12 C12          4.9930     2.1510     4.1080 c3         1 14W       0.197100
     13 N13          6.4520     2.3030     3.9500 n8         1 14W      -1.000200
     14 H2           3.8600     1.6250     1.6640 ha         1 14W       0.115000
     15 H4           4.4310     4.8040     4.5350 ha         1 14W       0.131000
     16 H5           3.1730     6.3610     3.0580 ha         1 14W       0.115000
     17 H6           2.2570     5.5620     0.8880 ha         1 14W       0.113000
     18 H71          2.1790     1.9780    -0.1120 h1         1 14W       0.042200
     19 H72          1.5090     3.5930    -0.4270 h1         1 14W       0.042200
     20 H8           4.3090     3.6770    -0.9880 hn         1 14W       0.483000
     21 H101         4.6970     4.3350    -3.4370 hc         1 14W       0.054367
     22 H102         5.3730     2.7250    -3.1210 hc         1 14W       0.054367
     23 H103         4.2900     2.9790    -4.4980 hc         1 14W       0.054367
     24 H11          1.6170     2.3140    -2.1590 hn         1 14W       0.371400
     25 H121         4.7280     2.3440     5.1570 h1         1 14W       0.036200
     26 H122         4.7170     1.1130     3.8740 h1         1 14W       0.036200
     27 H131         6.7000     2.0670     2.9820 hn         1 14W       0.397500
     28 H132         6.9230     1.5800     4.5060 hn         1 14W       0.397500
@<TRIPOS>BOND
     1     1     2 ar  
     2     1     6 ar  
     3     1    14 1   
     4     2     3 ar  
     5     2    12 1   
     6     3     4 ar  
     7     3    15 1   
     8     4     5 ar  
     9     4    16 1   
    10     5     6 ar  
    11     5    17 1   
    12     6     7 1   
    13     7     8 1   
    14     7    18 1   
    15     7    19 1   
    16     8     9 1   
    17     8    20 1   
    18     9    10 1   
    19     9    11 2   
    20    10    21 1   
    21    10    22 1   
    22    10    23 1   
    23    11    24 1   
    24    12    13 1   
    25    12    25 1   
    26    12    26 1   
    27    13    27 1   
    28    13    28 1   
@<TRIPOS>SUBSTRUCTURE
     1 14W         1 TEMP              0 ****  ****    0 ROOT
