@<TRIPOS>MOLECULE
14X
   37    39     1     0     0
SMALL
No Charge or Current Charge


@<TRIPOS>ATOM
      1 C4          -0.5530    -0.9890     0.0320 ca         1 14X      -0.345500
      2 C5           0.0280    -1.6830     1.1120 ca         1 14X       0.025000
      3 C6           1.3910    -1.5030     1.4020 ca         1 14X      -0.190000
      4 C11         -4.6060     1.8530     0.8440 c5         1 14X      -0.089400
      5 C7           2.1670    -0.6340     0.6190 ca         1 14X       0.055000
      6 C8           4.4030     0.3790     0.2160 c          1 14X       0.613000
      7 C9          -2.5170     0.8090     1.5220 c5         1 14X       0.211800
      8 C10         -3.2350     2.1780     1.5100 c5         1 14X      -0.089400
      9 C12         -4.4100     0.4350     0.2340 c5         1 14X       0.211800
     10 N1           3.5270    -0.4390     0.8930 ns         1 14X      -0.149000
     11 N2          -2.9460     0.2740     0.2200 n3         1 14X      -0.754500
     12 C3           0.2290    -0.1160    -0.7500 ca         1 14X       0.032000
     13 O2          -2.4480    -1.1540    -1.8040 o          1 14X      -0.538000
     14 S           -2.2990    -1.1880    -0.3450 sy         1 14X       1.178600
     15 O1          -2.8670    -2.2600     0.4800 o          1 14X      -0.538000
     16 C2           1.5930     0.0610    -0.4540 ca         1 14X      -0.178300
     17 C1           2.4470     1.0090    -1.2950 c6         1 14X       0.156300
     18 O            5.5780     0.4710     0.5460 o          1 14X      -0.570000
     19 N            3.8700     1.1030    -0.8750 n          1 14X      -0.400800
     20 C            4.7490     2.0030    -1.6510 c3         1 14X       0.089300
     21 H1          -0.5660    -2.3560     1.7290 ha         1 14X       0.135000
     22 H2           1.8400    -2.0390     2.2350 ha         1 14X       0.124000
     23 H4          -4.8540     2.5900     0.0730 hc         1 14X       0.055700
     24 H5          -1.4280     0.9310     1.6040 h1         1 14X       0.056200
     25 H6          -2.8570     0.1760     2.3540 h1         1 14X       0.056200
     26 H7          -2.6720     2.9010     0.9090 hc         1 14X       0.055700
     27 H8          -3.3400     2.6000     2.5150 hc         1 14X       0.055700
     28 H9          -4.8860    -0.3280     0.8670 h1         1 14X       0.056200
     29 H10         -4.8480     0.3580    -0.7710 h1         1 14X       0.056200
     30 H11          3.9090    -0.9560     1.6730 hn         1 14X       0.173000
     31 H12         -0.2210     0.4300    -1.5790 ha         1 14X       0.138000
     32 H13          2.4110     0.6790    -2.3440 h1         1 14X       0.052700
     33 H14          2.0010     2.0130    -1.2550 h1         1 14X       0.052700
     34 H15          5.1610     2.7780    -0.9910 h1         1 14X       0.048033
     35 H16          5.5750     1.4270    -2.0900 h1         1 14X       0.048033
     36 H17          4.1860     2.4880    -2.4590 h1         1 14X       0.048033
     37 H3          -5.4280     1.8570     1.5700 hc         1 14X       0.055700
@<TRIPOS>BOND
     1     1     2 ar  
     2     1    12 ar  
     3     1    14 1   
     4     2     3 ar  
     5     2    21 1   
     6     3     5 ar  
     7     3    22 1   
     8     4     8 1   
     9     4     9 1   
    10     4    23 1   
    11     4    37 1   
    12     5    10 1   
    13     5    16 ar  
    14     6    10 1   
    15     6    18 2   
    16     6    19 1   
    17     7     8 1   
    18     7    11 1   
    19     7    24 1   
    20     7    25 1   
    21     8    26 1   
    22     8    27 1   
    23     9    11 1   
    24     9    28 1   
    25     9    29 1   
    26    10    30 1   
    27    11    14 1   
    28    12    16 ar  
    29    12    31 1   
    30    13    14 2   
    31    14    15 2   
    32    16    17 1   
    33    17    19 1   
    34    17    32 1   
    35    17    33 1   
    36    19    20 1   
    37    20    34 1   
    38    20    35 1   
    39    20    36 1   
@<TRIPOS>SUBSTRUCTURE
     1 14X         1 TEMP              0 ****  ****    0 ROOT
