@<TRIPOS>MOLECULE
14X
   37    39     1     0     0
SMALL
bcc


@<TRIPOS>ATOM
      1 C4          -0.6890    -0.7250    -0.3590 ca         1 14X      -0.345500
      2 C5          -0.3740    -1.4920     0.7580 ca         1 14X       0.007000
      3 C6           0.8820    -1.3940     1.3250 ca         1 14X      -0.208000
      4 C11         -4.2210     1.2220     1.7150 c5         1 14X      -0.089400
      5 C7           1.8230    -0.5220     0.7780 ca         1 14X       0.147600
      6 C8           4.1650     0.1320     0.6450 c          1 14X       0.822500
      7 C9          -2.9640     1.7100    -0.2700 c5         1 14X       0.211800
      8 C10         -3.2420     2.2360     1.1360 c5         1 14X      -0.089400
      9 C12         -3.6870    -0.1020     1.1890 c5         1 14X       0.211800
     10 N1           3.0810    -0.3910     1.3200 ns         1 14X      -0.475100
     11 N2          -3.2270     0.2640    -0.1570 n3         1 14X      -0.754500
     12 C3           0.2560     0.1310    -0.9160 ca         1 14X       0.014000
     13 O2          -2.2670    -0.2730    -2.3860 o          1 14X      -0.608800
     14 S           -2.3240    -0.7860    -1.0250 sy         1 14X       1.320200
     15 O1          -2.8630    -2.1130    -0.7700 o          1 14X      -0.608800
     16 C2           1.5070     0.2440    -0.3420 ca         1 14X      -0.178300
     17 C1           2.5400     1.2060    -0.8380 c6         1 14X       0.156300
     18 O            5.2910     0.0100     1.1000 o          1 14X      -0.645500
     19 N            3.8820     0.7370    -0.5340 n          1 14X      -0.467800
     20 C            4.9530     1.3910    -1.2560 c3         1 14X       0.089300
     21 H1          -1.0900    -2.1820     1.1840 ha         1 14X       0.153000
     22 H2           1.1350    -1.9970     2.1870 ha         1 14X       0.142000
     23 H4          -5.2300     1.3990     1.3370 hc         1 14X       0.055700
     24 H5          -3.6330     2.1470    -1.0110 h1         1 14X       0.056200
     25 H6          -1.9390     1.9250    -0.5790 h1         1 14X       0.056200
     26 H7          -3.6290     3.2540     1.1210 hc         1 14X       0.055700
     27 H8          -2.3210     2.2390     1.7230 hc         1 14X       0.055700
     28 H9          -2.8660    -0.4570     1.8220 h1         1 14X       0.056200
     29 H10         -4.4470    -0.8790     1.1410 h1         1 14X       0.056200
     30 H11          3.3070    -0.9210     2.1490 hn         1 14X       0.339500
     31 H12          0.0250     0.7120    -1.8000 ha         1 14X       0.156000
     32 H13          2.4560     1.3200    -1.9190 h1         1 14X       0.052700
     33 H14          2.3690     2.1990    -0.4010 h1         1 14X       0.052700
     34 H15          5.1240     2.4110    -0.9000 h1         1 14X       0.048033
     35 H16          5.8770     0.8300    -1.1620 h1         1 14X       0.048033
     36 H17          4.6870     1.4360    -2.3110 h1         1 14X       0.048033
     37 H3          -4.2620     1.2370     2.8030 hc         1 14X       0.055700
@<TRIPOS>BOND
     1     1     2 ar  
     2     1    12 ar  
     3     1    14 1   
     4     2     3 ar  
     5     2    21 1   
     6     3     5 ar  
     7     3    22 1   
     8     4     8 1   
     9     4     9 1   
    10     4    23 1   
    11     4    37 1   
    12     5    10 1   
    13     5    16 ar  
    14     6    10 1   
    15     6    18 2   
    16     6    19 1   
    17     7     8 1   
    18     7    11 1   
    19     7    24 1   
    20     7    25 1   
    21     8    26 1   
    22     8    27 1   
    23     9    11 1   
    24     9    28 1   
    25     9    29 1   
    26    10    30 1   
    27    11    14 1   
    28    12    16 ar  
    29    12    31 1   
    30    13    14 2   
    31    14    15 2   
    32    16    17 1   
    33    17    19 1   
    34    17    32 1   
    35    17    33 1   
    36    19    20 1   
    37    20    34 1   
    38    20    35 1   
    39    20    36 1   
@<TRIPOS>SUBSTRUCTURE
     1 14X         1 TEMP              0 ****  ****    0 ROOT
