@<TRIPOS>MOLECULE
14Y
   57    56     1     0     0
SMALL
No Charge or Current Charge


@<TRIPOS>ATOM
      1 O2           8.2160     2.0670    -0.7630 os         1 14Y      -0.449100
      2 C1           8.1260     1.1470     0.2490 c          1 14Y       0.590100
      3 O1           8.6380     1.2780     1.3520 o          1 14Y      -0.486000
      4 C2           7.2650    -0.0550    -0.1490 c3         1 14Y      -0.138400
      5 C3           5.7950     0.1340     0.2960 c3         1 14Y      -0.068400
      6 C4           4.8890    -1.0550    -0.0930 c3         1 14Y      -0.076400
      7 C5           3.4220    -0.8670     0.3510 c3         1 14Y      -0.074400
      8 C6           2.5160    -2.0560    -0.0380 c3         1 14Y      -0.075400
      9 C7           1.0490    -1.8690     0.4060 c3         1 14Y      -0.071400
     10 C8           0.1410    -3.0550     0.0190 c3         1 14Y      -0.041200
     11 C9          -1.2920    -2.8440     0.4610 c2         1 14Y      -0.218200
     12 C10         -2.3440    -2.7070    -0.3620 c2         1 14Y      -0.217200
     13 C11         -3.7770    -2.4990     0.0810 c3         1 14Y      -0.041200
     14 C12         -4.3220    -1.1190    -0.3450 c3         1 14Y      -0.071400
     15 C13         -5.7820    -0.8800     0.0990 c3         1 14Y      -0.075400
     16 C14         -6.3240     0.5020    -0.3270 c3         1 14Y      -0.073400
     17 C15         -7.7840     0.7420     0.1170 c3         1 14Y      -0.075400
     18 C16         -8.3260     2.1240    -0.3100 c3         1 14Y      -0.075400
     19 C17         -9.7850     2.3650     0.1350 c3         1 14Y      -0.075400
     20 C18        -10.3260     3.7430    -0.2910 c3         1 14Y      -0.088100
     21 CA4          8.9820     3.2630    -0.5250 c3         1 14Y       0.152900
     22 HA41        10.0270     3.0190    -0.2940 h1         1 14Y       0.047700
     23 HA42         8.9710     3.9070    -1.4130 h1         1 14Y       0.047700
     24 HA43         8.5650     3.8340     0.3150 h1         1 14Y       0.047700
     25 H21C         7.2700    -0.1530    -1.2410 hc         1 14Y       0.070700
     26 H22C         7.6690    -0.9580     0.3220 hc         1 14Y       0.070700
     27 H31C         5.7630     0.2710     1.3840 hc         1 14Y       0.054200
     28 H32C         5.3970     1.0530    -0.1530 hc         1 14Y       0.054200
     29 H41C         4.9210    -1.1910    -1.1820 hc         1 14Y       0.037200
     30 H42C         5.2870    -1.9730     0.3560 hc         1 14Y       0.037200
     31 H51C         3.3900    -0.7310     1.4400 hc         1 14Y       0.040700
     32 H52C         3.0240     0.0510    -0.0980 hc         1 14Y       0.040700
     33 H61C         2.5480    -2.1920    -1.1260 hc         1 14Y       0.036700
     34 H62C         2.9140    -2.9750     0.4120 hc         1 14Y       0.036700
     35 H71C         1.0150    -1.7320     1.4950 hc         1 14Y       0.040700
     36 H72C         0.6490    -0.9510    -0.0440 hc         1 14Y       0.040700
     37 H81C         0.1870    -3.1970    -1.0690 hc         1 14Y       0.042700
     38 H82C         0.5350    -3.9740     0.4700 hc         1 14Y       0.042700
     39 H9          -1.4280    -2.8100     1.5440 ha         1 14Y       0.165000
     40 H10         -2.2080    -2.7430    -1.4450 ha         1 14Y       0.165000
     41 H111        -4.4130    -3.2850    -0.3450 hc         1 14Y       0.042700
     42 H112        -3.8570    -2.5920     1.1710 hc         1 14Y       0.042700
     43 H121        -3.6820    -0.3360     0.0810 hc         1 14Y       0.040200
     44 H122        -4.2570    -1.0280    -1.4360 hc         1 14Y       0.040200
     45 H131        -6.4210    -1.6640    -0.3250 hc         1 14Y       0.037200
     46 H132        -5.8460    -0.9700     1.1910 hc         1 14Y       0.037200
     47 H141        -5.6850     1.2870     0.0970 hc         1 14Y       0.037700
     48 H142        -6.2600     0.5930    -1.4190 hc         1 14Y       0.037700
     49 H151        -8.4230    -0.0420    -0.3080 hc         1 14Y       0.036700
     50 H152        -7.8470     0.6520     1.2090 hc         1 14Y       0.036700
     51 H161        -7.6870     2.9090     0.1150 hc         1 14Y       0.037200
     52 H162        -8.2620     2.2150    -1.4010 hc         1 14Y       0.037200
     53 H171       -10.4280     1.5830    -0.2900 hc         1 14Y       0.036700
     54 H172        -9.8520     2.2770     1.2260 hc         1 14Y       0.036700
     55 H181        -9.7240     4.5480     0.1470 hc         1 14Y       0.031367
     56 H182       -10.3050     3.8480    -1.3820 hc         1 14Y       0.031367
     57 H183       -11.3630     3.8670     0.0460 hc         1 14Y       0.031367
@<TRIPOS>BOND
     1     1     2 1   
     2     1    21 1   
     3     2     3 2   
     4     2     4 1   
     5     4     5 1   
     6     4    25 1   
     7     4    26 1   
     8     5     6 1   
     9     5    27 1   
    10     5    28 1   
    11     6     7 1   
    12     6    29 1   
    13     6    30 1   
    14     7     8 1   
    15     7    31 1   
    16     7    32 1   
    17     8     9 1   
    18     8    33 1   
    19     8    34 1   
    20     9    10 1   
    21     9    35 1   
    22     9    36 1   
    23    10    11 1   
    24    10    37 1   
    25    10    38 1   
    26    11    12 2   
    27    11    39 1   
    28    12    13 1   
    29    12    40 1   
    30    13    14 1   
    31    13    41 1   
    32    13    42 1   
    33    14    15 1   
    34    14    43 1   
    35    14    44 1   
    36    15    16 1   
    37    15    45 1   
    38    15    46 1   
    39    16    17 1   
    40    16    47 1   
    41    16    48 1   
    42    17    18 1   
    43    17    49 1   
    44    17    50 1   
    45    18    19 1   
    46    18    51 1   
    47    18    52 1   
    48    19    20 1   
    49    19    53 1   
    50    19    54 1   
    51    20    55 1   
    52    20    56 1   
    53    20    57 1   
    54    21    22 1   
    55    21    23 1   
    56    21    24 1   
@<TRIPOS>SUBSTRUCTURE
     1 14Y         1 TEMP              0 ****  ****    0 ROOT
