@<TRIPOS>MOLECULE
14Y
   57    56     1     0     0
SMALL
bcc


@<TRIPOS>ATOM
      1 O2           9.3790     1.0250    -0.4220 os         1 14Y      -0.425900
      2 C1           8.1640     1.2670     0.0590 c          1 14Y       0.639100
      3 O1           7.8830     2.2690     0.6680 o          1 14Y      -0.535000
      4 C2           7.2150     0.1410    -0.2490 c3         1 14Y      -0.138400
      5 C3           5.7770     0.4200     0.1550 c3         1 14Y      -0.068400
      6 C4           4.8600    -0.7500    -0.1790 c3         1 14Y      -0.076400
      7 C5           3.4090    -0.5020     0.2100 c3         1 14Y      -0.074400
      8 C6           2.4960    -1.6740    -0.1270 c3         1 14Y      -0.075400
      9 C7           1.0460    -1.4520     0.2840 c3         1 14Y      -0.071400
     10 C8           0.1410    -2.6210    -0.1070 c3         1 14Y      -0.041200
     11 C9          -1.2580    -2.4750     0.4010 c2         1 14Y      -0.168200
     12 C10         -2.3400    -2.3500    -0.3630 c2         1 14Y      -0.167200
     13 C11         -3.7420    -2.2100     0.1380 c3         1 14Y      -0.041200
     14 C12         -4.3900    -0.8800    -0.2490 c3         1 14Y      -0.071400
     15 C13         -5.8620    -0.8160     0.1380 c3         1 14Y      -0.075400
     16 C14         -6.5280     0.5100    -0.2080 c3         1 14Y      -0.073400
     17 C15         -8.0110     0.5380     0.1420 c3         1 14Y      -0.075400
     18 C16         -8.6890     1.8610    -0.1900 c3         1 14Y      -0.075400
     19 C17        -10.1760     1.8730     0.1410 c3         1 14Y      -0.075400
     20 C18        -10.8470     3.1990    -0.1910 c3         1 14Y      -0.088100
     21 CA4         10.3880     2.0070    -0.1920 c3         1 14Y       0.129700
     22 HA41        10.5810     2.1410     0.8720 h1         1 14Y       0.047700
     23 HA42        11.2860     1.6310    -0.6740 h1         1 14Y       0.047700
     24 HA43        10.1200     2.9670    -0.6330 h1         1 14Y       0.047700
     25 H21C         7.2780    -0.0840    -1.3180 hc         1 14Y       0.070700
     26 H22C         7.5860    -0.7560     0.2590 hc         1 14Y       0.070700
     27 H31C         5.7240     0.6290     1.2260 hc         1 14Y       0.054200
     28 H32C         5.4170     1.3200    -0.3530 hc         1 14Y       0.054200
     29 H41C         4.9180    -0.9630    -1.2520 hc         1 14Y       0.037200
     30 H42C         5.2220    -1.6510     0.3280 hc         1 14Y       0.037200
     31 H51C         3.3510    -0.2900     1.2840 hc         1 14Y       0.040700
     32 H52C         3.0440     0.3990    -0.2960 hc         1 14Y       0.040700
     33 H61C         2.5430    -1.8700    -1.2040 hc         1 14Y       0.036700
     34 H62C         2.8740    -2.5800     0.3610 hc         1 14Y       0.036700
     35 H71C         0.9940    -1.2930     1.3670 hc         1 14Y       0.040700
     36 H72C         0.6660    -0.5350    -0.1770 hc         1 14Y       0.040700
     37 H81C         0.1340    -2.7280    -1.1960 hc         1 14Y       0.042700
     38 H82C         0.5730    -3.5460     0.2920 hc         1 14Y       0.042700
     39 H9          -1.3770    -2.4690     1.4830 ha         1 14Y       0.115000
     40 H10         -2.2170    -2.3480    -1.4450 ha         1 14Y       0.115000
     41 H111        -4.3500    -3.0250    -0.2730 hc         1 14Y       0.042700
     42 H112        -3.7650    -2.3260     1.2260 hc         1 14Y       0.042700
     43 H121        -3.8440    -0.0600     0.2270 hc         1 14Y       0.040200
     44 H122        -4.2920    -0.7270    -1.3290 hc         1 14Y       0.040200
     45 H131        -6.3980    -1.6310    -0.3610 hc         1 14Y       0.037200
     46 H132        -5.9640    -1.0020     1.2140 hc         1 14Y       0.037200
     47 H141        -6.0140     1.3240     0.3150 hc         1 14Y       0.037700
     48 H142        -6.4050     0.7120    -1.2780 hc         1 14Y       0.037700
     49 H151        -8.5210    -0.2740    -0.3880 hc         1 14Y       0.036700
     50 H152        -8.1350     0.3250     1.2100 hc         1 14Y       0.036700
     51 H161        -8.1900     2.6720     0.3530 hc         1 14Y       0.037200
     52 H162        -8.5540     2.0830    -1.2540 hc         1 14Y       0.037200
     53 H171       -10.6730     1.0640    -0.4030 hc         1 14Y       0.036700
     54 H172       -10.3120     1.6490     1.2040 hc         1 14Y       0.036700
     55 H181       -10.3920     4.0210     0.3650 hc         1 14Y       0.031367
     56 H182       -10.7550     3.4320    -1.2530 hc         1 14Y       0.031367
     57 H183       -11.9100     3.1840     0.0520 hc         1 14Y       0.031367
@<TRIPOS>BOND
     1     1     2 1   
     2     1    21 1   
     3     2     3 2   
     4     2     4 1   
     5     4     5 1   
     6     4    25 1   
     7     4    26 1   
     8     5     6 1   
     9     5    27 1   
    10     5    28 1   
    11     6     7 1   
    12     6    29 1   
    13     6    30 1   
    14     7     8 1   
    15     7    31 1   
    16     7    32 1   
    17     8     9 1   
    18     8    33 1   
    19     8    34 1   
    20     9    10 1   
    21     9    35 1   
    22     9    36 1   
    23    10    11 1   
    24    10    37 1   
    25    10    38 1   
    26    11    12 2   
    27    11    39 1   
    28    12    13 1   
    29    12    40 1   
    30    13    14 1   
    31    13    41 1   
    32    13    42 1   
    33    14    15 1   
    34    14    43 1   
    35    14    44 1   
    36    15    16 1   
    37    15    45 1   
    38    15    46 1   
    39    16    17 1   
    40    16    47 1   
    41    16    48 1   
    42    17    18 1   
    43    17    49 1   
    44    17    50 1   
    45    18    19 1   
    46    18    51 1   
    47    18    52 1   
    48    19    20 1   
    49    19    53 1   
    50    19    54 1   
    51    20    55 1   
    52    20    56 1   
    53    20    57 1   
    54    21    22 1   
    55    21    23 1   
    56    21    24 1   
@<TRIPOS>SUBSTRUCTURE
     1 14Y         1 TEMP              0 ****  ****    0 ROOT
