@<TRIPOS>MOLECULE
14Z
   33    34     1     0     0
SMALL
abcg2


@<TRIPOS>ATOM
      1 CAO         -4.0530     1.2310     2.5930 c3         1 14Z      -0.094100
      2 CAN         -3.3270     1.1170     1.2670 c3         1 14Z       0.195800
      3 NAM         -3.3260    -0.2780     0.8240 n7         1 14Z      -0.858300
      4 SAP         -2.7650    -0.6290    -0.6850 sy         1 14Z       1.150600
      5 OAQ         -2.7920    -2.0790    -0.7940 o          1 14Z      -0.534000
      6 OAR         -3.5280     0.1850    -1.6180 o          1 14Z      -0.534000
      7 CAA         -1.0830    -0.0960    -0.7530 ca         1 14Z      -0.354500
      8 CAF         -0.0880    -0.9150    -0.2260 ca         1 14Z       0.027000
      9 CAE          1.2240    -0.4890    -0.2310 ca         1 14Z      -0.174300
     10 CAJ          2.3640    -1.3410     0.2320 c6         1 14Z       0.155300
     11 NAI          3.4350    -0.5160     0.7660 n          1 14Z      -0.402800
     12 CAL          4.4030    -1.1920     1.6030 c3         1 14Z       0.089300
     13 CAH          3.8000     0.6310     0.1450 c          1 14Z       0.610000
     14 OAK          4.8680     1.1960     0.3180 o          1 14Z      -0.568000
     15 NAG          2.8540     1.1700    -0.7060 ns         1 14Z      -0.146000
     16 CAD          1.5370     0.7710    -0.7400 ca         1 14Z       0.055000
     17 CAC          0.5420     1.5870    -1.2710 ca         1 14Z      -0.190000
     18 CAB         -0.7700     1.1500    -1.2810 ca         1 14Z       0.032000
     19 H1          -4.0620     2.2700     2.9180 hc         1 14Z       0.044700
     20 H2          -5.0850     0.8900     2.5070 hc         1 14Z       0.044700
     21 H3          -3.5610     0.6450     3.3700 hc         1 14Z       0.044700
     22 H4          -3.8410     1.7140     0.5150 h1         1 14Z       0.051200
     23 H5          -2.3090     1.5100     1.3620 h1         1 14Z       0.051200
     24 H6          -2.9490    -0.9190     1.5150 hn         1 14Z       0.475000
     25 H7          -0.3290    -1.8920     0.1750 ha         1 14Z       0.132000
     26 H8           2.0330    -2.0220     1.0150 h1         1 14Z       0.055200
     27 H9           2.7310    -1.9610    -0.5960 h1         1 14Z       0.055200
     28 H10          5.0750    -1.8290     1.0230 h1         1 14Z       0.048033
     29 H11          4.9980    -0.4720     2.1580 h1         1 14Z       0.048033
     30 H12          3.8710    -1.8170     2.3190 h1         1 14Z       0.048033
     31 H13          3.0910     2.0740    -1.0870 hn         1 14Z       0.172000
     32 H14          0.7920     2.5610    -1.6710 ha         1 14Z       0.126000
     33 H15         -1.5380     1.7860    -1.6990 ha         1 14Z       0.142000
@<TRIPOS>BOND
     1     1     2 1   
     2     1    19 1   
     3     1    20 1   
     4     1    21 1   
     5     2     3 1   
     6     2    22 1   
     7     2    23 1   
     8     3     4 1   
     9     3    24 1   
    10     4     5 2   
    11     4     6 2   
    12     4     7 1   
    13     7     8 ar  
    14     7    18 ar  
    15     8     9 ar  
    16     8    25 1   
    17     9    10 1   
    18     9    16 ar  
    19    10    11 1   
    20    10    26 1   
    21    10    27 1   
    22    11    12 1   
    23    11    13 1   
    24    12    28 1   
    25    12    29 1   
    26    12    30 1   
    27    13    14 2   
    28    13    15 1   
    29    15    16 1   
    30    15    31 1   
    31    16    17 ar  
    32    17    18 ar  
    33    17    32 1   
    34    18    33 1   
@<TRIPOS>SUBSTRUCTURE
     1 14Z         1 TEMP              0 ****  ****    0 ROOT
