@<TRIPOS>MOLECULE
14Z
   33    34     1     0     0
SMALL
No Charge or Current Charge


@<TRIPOS>ATOM
      1 CAO         -3.8510     1.1990     2.5440 c3         1 14Z      -0.094100
      2 CAN         -2.9300     0.4190     1.5940 c3         1 14Z       0.195800
      3 NAM         -3.6230     0.1800     0.3190 n7         1 14Z      -0.858300
      4 SAP         -2.8660    -0.7710    -0.8230 sy         1 14Z       1.150600
      5 OAQ         -2.8990    -2.1350    -0.2910 o          1 14Z      -0.534000
      6 OAR         -3.4820    -0.4020    -2.0990 o          1 14Z      -0.534000
      7 CAA         -1.1920    -0.1230    -0.7770 ca         1 14Z      -0.354500
      8 CAF         -0.1760    -0.8230    -0.0940 ca         1 14Z       0.027000
      9 CAE          1.1310    -0.3010    -0.0540 ca         1 14Z      -0.174300
     10 CAJ          2.2380    -1.0520     0.6870 c6         1 14Z       0.155300
     11 NAI          3.5680    -0.3890     0.6520 n          1 14Z      -0.402800
     12 CAL          4.6820    -1.0660     1.3510 c3         1 14Z       0.089300
     13 CAH          3.8050     0.8370    -0.0090 c          1 14Z       0.610000
     14 OAK          4.9080     1.3650    -0.0260 o          1 14Z      -0.568000
     15 NAG          2.7230     1.4100    -0.6380 ns         1 14Z      -0.146000
     16 CAD          1.4140     0.9130    -0.6950 ca         1 14Z       0.055000
     17 CAC          0.4060     1.6120    -1.3750 ca         1 14Z      -0.190000
     18 CAB         -0.9000     1.0970    -1.4180 ca         1 14Z       0.032000
     19 H1          -3.3390     1.3940     3.4930 hc         1 14Z       0.044700
     20 H2          -4.1340     2.1630     2.1040 hc         1 14Z       0.044700
     21 H3          -4.7640     0.6310     2.7580 hc         1 14Z       0.044700
     22 H4          -2.0140     1.0060     1.4420 h1         1 14Z       0.051200
     23 H5          -2.6460    -0.5300     2.0730 h1         1 14Z       0.051200
     24 H6          -4.4600    -0.3730     0.4940 hn         1 14Z       0.475000
     25 H7          -0.3930    -1.7650     0.4080 ha         1 14Z       0.132000
     26 H8           1.9350    -1.1800     1.7360 h1         1 14Z       0.055200
     27 H9           2.3330    -2.0570     0.2510 h1         1 14Z       0.055200
     28 H10          5.4820    -1.2980     0.6370 h1         1 14Z       0.048033
     29 H11          5.0790    -0.4100     2.1370 h1         1 14Z       0.048033
     30 H12          4.3350    -2.0010     1.8110 h1         1 14Z       0.048033
     31 H13          2.8930     2.2870    -1.1110 hn         1 14Z       0.172000
     32 H14          0.6300     2.5540    -1.8700 ha         1 14Z       0.126000
     33 H15         -1.6800     1.6480    -1.9430 ha         1 14Z       0.142000
@<TRIPOS>BOND
     1     1     2 1   
     2     1    19 1   
     3     1    20 1   
     4     1    21 1   
     5     2     3 1   
     6     2    22 1   
     7     2    23 1   
     8     3     4 1   
     9     3    24 1   
    10     4     5 2   
    11     4     6 2   
    12     4     7 1   
    13     7     8 ar  
    14     7    18 ar  
    15     8     9 ar  
    16     8    25 1   
    17     9    10 1   
    18     9    16 ar  
    19    10    11 1   
    20    10    26 1   
    21    10    27 1   
    22    11    12 1   
    23    11    13 1   
    24    12    28 1   
    25    12    29 1   
    26    12    30 1   
    27    13    14 2   
    28    13    15 1   
    29    15    16 1   
    30    15    31 1   
    31    16    17 ar  
    32    17    18 ar  
    33    17    32 1   
    34    18    33 1   
@<TRIPOS>SUBSTRUCTURE
     1 14Z         1 TEMP              0 ****  ****    0 ROOT
