@<TRIPOS>MOLECULE
150
   22    22     1     0     0
SMALL
No Charge or Current Charge


@<TRIPOS>ATOM
      1 N1          -1.4350     0.0770    -2.4170 nv         1 150      -1.052000
      2 N2           1.4810    -0.0610    -2.4070 nv         1 150      -1.052000
      3 C1          -0.6950     0.0420    -1.2430 ca         1 150       0.220000
      4 C2           0.7330    -0.0420    -1.2380 ca         1 150       0.220000
      5 C3           1.4140    -0.0950    -0.0110 ca         1 150      -0.138500
      6 C4           0.7150    -0.0610     1.2120 ca         1 150      -0.075800
      7 C5          -0.6960     0.0300     1.2080 ca         1 150      -0.075800
      8 C6          -1.3860     0.0810    -0.0200 ca         1 150      -0.138500
      9 C7           1.4990    -0.1190     2.5210 c3         1 150      -0.040800
     10 C8          -1.4890     0.0730     2.5120 c3         1 150      -0.040800
     11 HN11        -2.4480    -0.0150    -2.3680 hn         1 150       0.432250
     12 HN12        -0.9920    -0.2100    -3.2860 hn         1 150       0.432250
     13 HN21         2.4940     0.0300    -2.3500 hn         1 150       0.432250
     14 HN22         1.0450     0.2370    -3.2760 hn         1 150       0.432250
     15 H3           2.4990    -0.1610    -0.0060 ha         1 150       0.107000
     16 H6          -2.4710     0.1460    -0.0220 ha         1 150       0.107000
     17 H71          1.3250     0.7780     3.1260 hc         1 150       0.038367
     18 H72          1.2070    -0.9920     3.1180 hc         1 150       0.038367
     19 H73          2.5790    -0.1910     2.3480 hc         1 150       0.038367
     20 H81         -1.3190    -0.8330     3.1060 hc         1 150       0.038367
     21 H82         -1.2010     0.9370     3.1210 hc         1 150       0.038367
     22 H83         -2.5680     0.1470     2.3310 hc         1 150       0.038367
@<TRIPOS>BOND
     1     1     3 1   
     2     1    11 1   
     3     1    12 1   
     4     2     4 1   
     5     2    13 1   
     6     2    14 1   
     7     3     4 ar  
     8     3     8 ar  
     9     4     5 ar  
    10     5     6 ar  
    11     5    15 1   
    12     6     7 ar  
    13     6     9 1   
    14     7     8 ar  
    15     7    10 1   
    16     8    16 1   
    17     9    17 1   
    18     9    18 1   
    19     9    19 1   
    20    10    20 1   
    21    10    21 1   
    22    10    22 1   
@<TRIPOS>SUBSTRUCTURE
     1 150         1 TEMP              0 ****  ****    0 ROOT
