@<TRIPOS>MOLECULE
150
   22    22     1     0     0
SMALL
bcc


@<TRIPOS>ATOM
      1 N1          -1.3520     0.1300    -2.4600 nv         1 150      -0.803200
      2 N2           1.4010    -0.1140    -2.4500 nv         1 150      -0.803200
      3 C1          -0.6820     0.0410    -1.2380 ca         1 150       0.081600
      4 C2           0.7210    -0.0390    -1.2330 ca         1 150       0.081600
      5 C3           1.3810    -0.0980    -0.0100 ca         1 150      -0.156500
      6 C4           0.7070    -0.0680     1.2080 ca         1 150      -0.075800
      7 C5          -0.6860     0.0380     1.2040 ca         1 150      -0.075800
      8 C6          -1.3510     0.0840    -0.0200 ca         1 150      -0.156500
      9 C7           1.4730    -0.1440     2.4980 c3         1 150      -0.040800
     10 C8          -1.4630     0.0970     2.4880 c3         1 150      -0.040800
     11 HN11        -2.3510     0.0190    -2.3710 hn         1 150       0.377050
     12 HN12        -1.0070    -0.5190    -3.1540 hn         1 150       0.377050
     13 HN21         2.3980     0.0070    -2.3550 hn         1 150       0.377050
     14 HN22         1.0520     0.5350    -3.1430 hn         1 150       0.377050
     15 H3           2.4650    -0.1600    -0.0110 ha         1 150       0.125000
     16 H6          -2.4350     0.1450    -0.0280 ha         1 150       0.125000
     17 H71          1.2850     0.7190     3.1400 hc         1 150       0.038367
     18 H72          1.2020    -1.0300     3.0780 hc         1 150       0.038367
     19 H73          2.5460    -0.1890     2.3170 hc         1 150       0.038367
     20 H81         -1.2760    -0.7720     3.1220 hc         1 150       0.038367
     21 H82         -1.2020     0.9780     3.0800 hc         1 150       0.038367
     22 H83         -2.5350     0.1390     2.2990 hc         1 150       0.038367
@<TRIPOS>BOND
     1     1     3 1   
     2     1    11 1   
     3     1    12 1   
     4     2     4 1   
     5     2    13 1   
     6     2    14 1   
     7     3     4 ar  
     8     3     8 ar  
     9     4     5 ar  
    10     5     6 ar  
    11     5    15 1   
    12     6     7 ar  
    13     6     9 1   
    14     7     8 ar  
    15     7    10 1   
    16     8    16 1   
    17     9    17 1   
    18     9    18 1   
    19     9    19 1   
    20    10    20 1   
    21    10    21 1   
    22    10    22 1   
@<TRIPOS>SUBSTRUCTURE
     1 150         1 TEMP              0 ****  ****    0 ROOT
