@<TRIPOS>MOLECULE
151
   59    61     1     0     0
SMALL
bcc


@<TRIPOS>ATOM
      1 O3           0.3250    -2.3810    -0.9930 o          1 151      -0.626100
      2 C2           0.5630    -1.1760    -0.9700 c          1 151       0.627600
      3 N1          -0.3930    -0.2470    -0.8370 n          1 151      -0.445800
      4 C26         -0.2770     1.1780    -1.1260 c5         1 151       0.126000
      5 C28         -1.6620     1.5190    -1.6400 c5         1 151      -0.127400
      6 C29         -2.5810     0.6490    -0.7840 c5         1 151       0.187500
      7 N2          -3.8590     0.3250    -1.3960 n7         1 151      -0.814100
      8 S1          -5.1840     1.2680    -1.2040 s6         1 151       1.238900
      9 C3          -4.9260     2.7600    -2.1420 c3         1 151      -0.280300
     10 O1          -6.2910     0.5510    -1.8190 o          1 151      -0.606800
     11 O2          -5.2640     1.6410     0.2010 o          1 151      -0.606800
     12 C8          -1.7710    -0.6390    -0.5190 c5         1 151       0.153700
     13 C7          -1.8650    -1.1990     0.9130 c3         1 151      -0.204700
     14 C27         -3.3060    -1.4540     1.3800 c3         1 151      -0.035700
     15 C1          -4.0000    -2.5050     0.5150 c3         1 151      -0.081600
     16 C17         -3.3280    -1.9040     2.8400 c3         1 151      -0.081600
     17 C30         -1.0800    -0.2900     1.8820 c          1 151       0.929600
     18 O5          -1.5180     0.8710     2.0510 o          1 151      -0.838300
     19 C4           1.9710    -0.7390    -1.0880 cc         1 151       0.199500
     20 N3           2.5060     0.4600    -0.6630 nc         1 151      -0.637000
     21 C5           3.7670     0.3690    -0.8980 cd         1 151       0.457700
     22 O4           4.1180    -0.8070    -1.4490 os         1 151      -0.339800
     23 C6           2.9770    -1.5110    -1.5600 cd         1 151       0.184300
     24 C9           4.8290     1.3770    -0.6390 c3         1 151       0.153500
     25 N4           5.8930     0.8310     0.1650 n3         1 151      -0.714600
     26 C11          7.0190     1.7380     0.3170 c5         1 151       0.155300
     27 C13          7.8570     1.0840     1.4160 c5         1 151      -0.079400
     28 C14          6.8390     0.2580     2.2320 c5         1 151      -0.079400
     29 C12          5.5040     0.4900     1.5240 c5         1 151       0.155300
     30 O51         -0.0690    -0.7740     2.4230 o          1 151      -0.838300
     31 H261         0.4940     1.3740    -1.8660 h1         1 151       0.066200
     32 H262        -0.0360     1.7430    -0.2240 h1         1 151       0.066200
     33 H281        -1.7520     1.2350    -2.6920 hc         1 151       0.033200
     34 H282        -1.8790     2.5840    -1.5570 hc         1 151       0.033200
     35 H29         -2.7700     1.1340     0.1720 h1         1 151       0.155700
     36 H2          -3.8080    -0.0970    -2.3170 hn         1 151       0.416800
     37 H3C1        -4.7470     2.5030    -3.1830 h1         1 151       0.092367
     38 H3C2        -5.8240     3.3710    -2.0580 h1         1 151       0.092367
     39 H3C3        -4.0760     3.3040    -1.7380 h1         1 151       0.092367
     40 H8          -2.0870    -1.4120    -1.2280 h1         1 151       0.039700
     41 H7          -1.3650    -2.1710     0.8980 hc         1 151       0.063700
     42 H27         -3.8810    -0.5250     1.3120 hc         1 151       0.057700
     43 H1C1        -3.4320    -3.4390     0.5050 hc         1 151       0.021700
     44 H1C2        -4.9940    -2.7290     0.9060 hc         1 151       0.021700
     45 H1C3        -4.1270    -2.1760    -0.5160 hc         1 151       0.021700
     46 H171        -2.7180    -2.7990     2.9880 hc         1 151       0.021700
     47 H172        -2.9540    -1.1320     3.5130 hc         1 151       0.021700
     48 H173        -4.3460    -2.1440     3.1540 hc         1 151       0.021700
     49 H6           3.0330    -2.5030    -1.9770 h4         1 151       0.071100
     50 H9C1         5.2450     1.7100    -1.5950 h1         1 151       0.054200
     51 H9C2         4.3430     2.2520    -0.1800 h1         1 151       0.054200
     52 H111         7.5550     1.8550    -0.6270 h1         1 151       0.043950
     53 H112         6.6880     2.7410     0.6360 h1         1 151       0.043950
     54 H131         8.6200     0.4380     0.9830 hc         1 151       0.043200
     55 H132         8.3710     1.8300     2.0210 hc         1 151       0.043200
     56 H141         7.1040    -0.7990     2.2230 hc         1 151       0.043200
     57 H142         6.7900     0.5680     3.2750 hc         1 151       0.043200
     58 H121         4.9540     1.3180     2.0020 h1         1 151       0.043950
     59 H122         4.8530    -0.3870     1.5450 h1         1 151       0.043950
@<TRIPOS>BOND
     1     1     2 2   
     2     2     3 1   
     3     2    19 1   
     4     3     4 1   
     5     3    12 1   
     6     4     5 1   
     7     4    31 1   
     8     4    32 1   
     9     5     6 1   
    10     5    33 1   
    11     5    34 1   
    12     6     7 1   
    13     6    12 1   
    14     6    35 1   
    15     7     8 1   
    16     7    36 1   
    17     8     9 1   
    18     8    10 2   
    19     8    11 2   
    20     9    37 1   
    21     9    38 1   
    22     9    39 1   
    23    12    13 1   
    24    12    40 1   
    25    13    14 1   
    26    13    17 1   
    27    13    41 1   
    28    14    15 1   
    29    14    16 1   
    30    14    42 1   
    31    15    43 1   
    32    15    44 1   
    33    15    45 1   
    34    16    46 1   
    35    16    47 1   
    36    16    48 1   
    37    17    18 1   
    38    17    30 1   
    39    19    20 1   
    40    19    23 2   
    41    20    21 2   
    42    21    22 1   
    43    21    24 1   
    44    22    23 1   
    45    23    49 1   
    46    24    25 1   
    47    24    50 1   
    48    24    51 1   
    49    25    26 1   
    50    25    29 1   
    51    26    27 1   
    52    26    52 1   
    53    26    53 1   
    54    27    28 1   
    55    27    54 1   
    56    27    55 1   
    57    28    29 1   
    58    28    56 1   
    59    28    57 1   
    60    29    58 1   
    61    29    59 1   
@<TRIPOS>SUBSTRUCTURE
     1 151         1 TEMP              0 ****  ****    0 ROOT
