@<TRIPOS>MOLECULE
151
   59    61     1     0     0
SMALL
No Charge or Current Charge


@<TRIPOS>ATOM
      1 O3           0.2170    -2.6290    -1.2190 o          1 151      -0.626100
      2 C2           0.5940    -1.4650    -1.1150 c          1 151       0.560600
      3 N1          -0.3530    -0.4330    -0.8670 n          1 151      -0.378800
      4 C26         -0.1350     0.9910    -1.1970 c5         1 151       0.126000
      5 C28         -1.5390     1.3950    -1.6960 c5         1 151      -0.127400
      6 C29         -2.4510     0.7040    -0.6500 c5         1 151       0.187500
      7 N2          -3.8070     0.5460    -1.2640 n7         1 151      -0.869300
      8 S1          -4.9530     1.6720    -0.8040 s6         1 151       1.208100
      9 C3          -4.3460     3.2050    -1.4810 c3         1 151      -0.391100
     10 O1          -6.1830     1.2870    -1.4960 o          1 151      -0.536000
     11 O2          -4.9260     1.7380     0.6580 o          1 151      -0.536000
     12 C8          -1.7750    -0.7210    -0.5280 c5         1 151       0.153700
     13 C7          -1.9310    -1.4110     0.8720 c3         1 151      -0.204700
     14 C27         -3.4030    -1.6760     1.3350 c3         1 151      -0.035700
     15 C1          -4.1800    -2.5780     0.3420 c3         1 151      -0.081600
     16 C17         -3.4770    -2.2900     2.7560 c3         1 151      -0.081600
     17 C30         -1.0830    -0.6970     1.9520 c          1 151       0.719000
     18 O5          -1.4000     0.4270     2.3100 o          1 151      -0.733000
     19 C4           2.0530    -1.0920    -1.2270 cc         1 151       0.199500
     20 N3           2.6880     0.1200    -1.0480 nc         1 151      -0.637000
     21 C5           3.9710    -0.1690    -1.2420 cd         1 151       0.413300
     22 O4           4.2430    -1.4780    -1.5370 os         1 151      -0.251000
     23 C6           3.0030    -2.0350    -1.5090 cd         1 151       0.139900
     24 C9           5.1080     0.8400    -1.1510 c3         1 151       0.153500
     25 N4           5.8800     0.8290     0.1270 n3         1 151      -0.714600
     26 C11          7.0020     1.7860     0.1940 c5         1 151       0.155300
     27 C13          7.5010     1.5700     1.6470 c5         1 151      -0.079400
     28 C14          6.2110     1.1640     2.4300 c5         1 151      -0.079400
     29 C12          5.1020     1.1480     1.3430 c5         1 151       0.155300
     30 O51         -0.1350    -1.3040     2.4290 o          1 151      -0.733000
     31 H261         0.6030     1.1440    -1.9940 h1         1 151       0.066200
     32 H262         0.1720     1.5610    -0.3090 h1         1 151       0.066200
     33 H281        -1.7080     1.0130    -2.7100 hc         1 151       0.033200
     34 H282        -1.6510     2.4820    -1.7300 hc         1 151       0.033200
     35 H29         -2.4510     1.2360     0.3130 h1         1 151       0.155700
     36 H2          -3.7580     0.6920    -2.2690 hn         1 151       0.472000
     37 H3C1        -4.1310     3.0530    -2.5440 h1         1 151       0.092367
     38 H3C2        -5.1360     3.9510    -1.3460 h1         1 151       0.092367
     39 H3C3        -3.4510     3.4930    -0.9210 h1         1 151       0.092367
     40 H8          -2.1830    -1.3940    -1.2940 h1         1 151       0.039700
     41 H7          -1.4810    -2.4050     0.7660 hc         1 151       0.063700
     42 H27         -3.9250    -0.7130     1.3820 hc         1 151       0.057700
     43 H1C1        -3.6930    -3.5550     0.2400 hc         1 151       0.021700
     44 H1C2        -5.2060    -2.7440     0.6930 hc         1 151       0.021700
     45 H1C3        -4.2460    -2.1230    -0.6520 hc         1 151       0.021700
     46 H171        -2.9230    -3.2350     2.8020 hc         1 151       0.021700
     47 H172        -3.0630    -1.6090     3.5090 hc         1 151       0.021700
     48 H173        -4.5180    -2.4910     3.0370 hc         1 151       0.021700
     49 H6           2.9190    -3.0970    -1.7000 h4         1 151       0.071100
     50 H9C1         5.7880     0.6400    -1.9890 h1         1 151       0.054200
     51 H9C2         4.6860     1.8400    -1.3220 h1         1 151       0.054200
     52 H111         7.7850     1.5740    -0.5470 h1         1 151       0.043950
     53 H112         6.6580     2.8190     0.0420 h1         1 151       0.043950
     54 H131         8.2480     0.7690     1.6890 hc         1 151       0.043200
     55 H132         7.9720     2.4730     2.0520 hc         1 151       0.043200
     56 H141         6.3290     0.1740     2.8850 hc         1 151       0.043200
     57 H142         5.9740     1.8640     3.2380 hc         1 151       0.043200
     58 H121         4.6170     2.1320     1.2600 h1         1 151       0.043950
     59 H122         4.3250     0.4020     1.5600 h1         1 151       0.043950
@<TRIPOS>BOND
     1     1     2 2   
     2     2     3 1   
     3     2    19 1   
     4     3     4 1   
     5     3    12 1   
     6     4     5 1   
     7     4    31 1   
     8     4    32 1   
     9     5     6 1   
    10     5    33 1   
    11     5    34 1   
    12     6     7 1   
    13     6    12 1   
    14     6    35 1   
    15     7     8 1   
    16     7    36 1   
    17     8     9 1   
    18     8    10 2   
    19     8    11 2   
    20     9    37 1   
    21     9    38 1   
    22     9    39 1   
    23    12    13 1   
    24    12    40 1   
    25    13    14 1   
    26    13    17 1   
    27    13    41 1   
    28    14    15 1   
    29    14    16 1   
    30    14    42 1   
    31    15    43 1   
    32    15    44 1   
    33    15    45 1   
    34    16    46 1   
    35    16    47 1   
    36    16    48 1   
    37    17    18 1   
    38    17    30 1   
    39    19    20 1   
    40    19    23 2   
    41    20    21 2   
    42    21    22 1   
    43    21    24 1   
    44    22    23 1   
    45    23    49 1   
    46    24    25 1   
    47    24    50 1   
    48    24    51 1   
    49    25    26 1   
    50    25    29 1   
    51    26    27 1   
    52    26    52 1   
    53    26    53 1   
    54    27    28 1   
    55    27    54 1   
    56    27    55 1   
    57    28    29 1   
    58    28    56 1   
    59    28    57 1   
    60    29    58 1   
    61    29    59 1   
@<TRIPOS>SUBSTRUCTURE
     1 151         1 TEMP              0 ****  ****    0 ROOT
