@<TRIPOS>MOLECULE
152
   26    25     1     0     0
SMALL
No Charge or Current Charge


@<TRIPOS>ATOM
      1 C1           2.7830    -0.2500     0.0570 c          1 152       0.728000
      2 O1A          3.1630    -0.3060     1.2150 o          1 152      -0.699500
      3 O1B          3.2880     0.4570    -0.8010 o          1 152      -0.699500
      4 C2           1.4960    -0.9850    -0.3150 c3         1 152      -0.253400
      5 C3           0.3020    -0.0290    -0.1450 c3         1 152       0.170300
      6 O3           0.4460     1.0230    -1.1070 oh         1 152      -0.647000
      7 C4          -1.0500    -0.7630    -0.3580 c3         1 152       0.051600
      8 N5          -2.3590    -0.0930     0.1120 n4         1 152      -0.489000
      9 C5A         -2.5770     1.2380    -0.6210 c3         1 152       0.075900
     10 C5B         -2.3220     0.1560     1.6270 c3         1 152       0.075900
     11 C5C         -3.5300    -1.0290    -0.2070 c3         1 152       0.075900
     12 H21          1.3280    -1.8270     0.3670 hc         1 152       0.034200
     13 H22          1.5090    -1.2760    -1.3730 hc         1 152       0.034200
     14 H3           0.3260     0.3710     0.8800 h1         1 152       0.109700
     15 HO3          1.4160     1.1120    -1.2630 ho         1 152       0.447000
     16 H41         -0.9900    -1.7180     0.1680 hx         1 152       0.082200
     17 H42         -1.1540    -0.9820    -1.4230 hx         1 152       0.082200
     18 H5A1        -1.7630     1.9220    -0.3740 hx         1 152       0.091256
     19 H5A2        -2.5890     1.0560    -1.6970 hx         1 152       0.091256
     20 H5A3        -3.5290     1.6710    -0.3080 hx         1 152       0.091256
     21 H5B1        -3.2770     0.5820     1.9440 hx         1 152       0.091256
     22 H5B2        -2.1530    -0.7910     2.1440 hx         1 152       0.091256
     23 H5B3        -1.5170     0.8540     1.8600 hx         1 152       0.091256
     24 H5C1        -3.5660    -1.2060    -1.2840 hx         1 152       0.091256
     25 H5C2        -3.3860    -1.9770     0.3160 hx         1 152       0.091256
     26 H5C3        -4.4630    -0.5660     0.1210 hx         1 152       0.091256
@<TRIPOS>BOND
     1     1     2 1   
     2     1     3 1   
     3     1     4 1   
     4     4     5 1   
     5     4    12 1   
     6     4    13 1   
     7     5     6 1   
     8     5     7 1   
     9     5    14 1   
    10     6    15 1   
    11     7     8 1   
    12     7    16 1   
    13     7    17 1   
    14     8     9 1   
    15     8    10 1   
    16     8    11 1   
    17     9    18 1   
    18     9    19 1   
    19     9    20 1   
    20    10    21 1   
    21    10    22 1   
    22    10    23 1   
    23    11    24 1   
    24    11    25 1   
    25    11    26 1   
@<TRIPOS>SUBSTRUCTURE
     1 152         1 TEMP              0 ****  ****    0 ROOT
