@<TRIPOS>MOLECULE
152
   26    25     1     0     0
SMALL
abcg2


@<TRIPOS>ATOM
      1 C1           2.8250    -0.3720     0.1010 c          1 152       0.728000
      2 O1A          2.8560    -0.0170     1.2940 o          1 152      -0.699500
      3 O1B          3.7840    -0.4120    -0.6930 o          1 152      -0.699500
      4 C2           1.4630    -0.8580    -0.4390 c3         1 152      -0.253400
      5 C3           0.2940    -0.0330     0.0770 c3         1 152       0.170300
      6 O3           0.3930     1.3160    -0.3140 oh         1 152      -0.647000
      7 C4          -1.0010    -0.7020    -0.3720 c3         1 152       0.051600
      8 N5          -2.2990    -0.0750     0.0810 n4         1 152      -0.489000
      9 C5A         -2.6170     1.1590    -0.6940 c3         1 152       0.075900
     10 C5B         -2.2690     0.2440     1.5340 c3         1 152       0.075900
     11 C5C         -3.3820    -1.0700    -0.1670 c3         1 152       0.075900
     12 H21          1.3330    -1.9010    -0.1300 hc         1 152       0.034200
     13 H22          1.4630    -0.8640    -1.5340 hc         1 152       0.034200
     14 H3           0.3440    -0.0360     1.1680 h1         1 152       0.109700
     15 HO3          0.5410     1.3530    -1.2660 ho         1 152       0.447000
     16 H41         -1.0090    -1.7210     0.0150 hx         1 152       0.082200
     17 H42         -1.0600    -0.7640    -1.4610 hx         1 152       0.082200
     18 H5A1        -1.8760     1.9220    -0.4870 hx         1 152       0.091256
     19 H5A2        -2.6180     0.9210    -1.7540 hx         1 152       0.091256
     20 H5A3        -3.6020     1.5120    -0.4000 hx         1 152       0.091256
     21 H5B1        -3.2600     0.5710     1.8370 hx         1 152       0.091256
     22 H5B2        -1.9900    -0.6450     2.0910 hx         1 152       0.091256
     23 H5B3        -1.5560     1.0400     1.7220 hx         1 152       0.091256
     24 H5C1        -3.3880    -1.3360    -1.2200 hx         1 152       0.091256
     25 H5C2        -3.2020    -1.9560     0.4350 hx         1 152       0.091256
     26 H5C3        -4.3380    -0.6310     0.1070 hx         1 152       0.091256
@<TRIPOS>BOND
     1     1     2 1   
     2     1     3 1   
     3     1     4 1   
     4     4     5 1   
     5     4    12 1   
     6     4    13 1   
     7     5     6 1   
     8     5     7 1   
     9     5    14 1   
    10     6    15 1   
    11     7     8 1   
    12     7    16 1   
    13     7    17 1   
    14     8     9 1   
    15     8    10 1   
    16     8    11 1   
    17     9    18 1   
    18     9    19 1   
    19     9    20 1   
    20    10    21 1   
    21    10    22 1   
    22    10    23 1   
    23    11    24 1   
    24    11    25 1   
    25    11    26 1   
@<TRIPOS>SUBSTRUCTURE
     1 152         1 TEMP              0 ****  ****    0 ROOT
