@<TRIPOS>MOLECULE
153
   50    52     1     0     0
SMALL
No Charge or Current Charge


@<TRIPOS>ATOM
      1 N1          -0.4090    -0.9650     0.9990 n          1 153      -0.339800
      2 C2           0.4610    -2.1570     1.3140 c3         1 153      -0.058300
      3 C3           0.9050    -2.2280     2.8070 c          1 153       0.716000
      4 O4           2.0250    -1.8440     3.1190 o          1 153      -0.714000
      5 O5           0.1110    -2.6880     3.6150 o          1 153      -0.714000
      6 C6          -1.6470    -1.1440     0.3140 c          1 153       0.619700
      7 O7          -2.0040    -2.2410    -0.0970 o          1 153      -0.601100
      8 C8          -2.5660     0.0310     0.1300 ca         1 153      -0.112600
      9 C9          -2.8510     0.4820    -1.1760 ca         1 153      -0.077000
     10 C10         -3.7260     1.5630    -1.3780 ca         1 153      -0.119000
     11 C11         -4.3420     2.1810    -0.2780 ca         1 153       0.124000
     12 C12         -4.1000     1.7100     1.0210 ca         1 153      -0.113000
     13 C13         -3.2240     0.6310     1.2270 ca         1 153       0.140000
     14 Cl14        -5.4400     3.5300    -0.5320 cl         1 153      -0.220000
     15 Cl15        -3.0070     0.0220     2.8680 cl         1 153      -0.135000
     16 C16          1.6560    -2.3460     0.3330 c3         1 153      -0.036100
     17 C17          1.2540    -2.4160    -1.1380 ca         1 153      -0.045300
     18 C18          1.6800    -1.4220    -2.0410 ca         1 153      -0.115500
     19 C19          1.3080    -1.4830    -3.3950 ca         1 153      -0.119000
     20 C20          0.5170    -2.5460    -3.8590 ca         1 153      -0.139000
     21 C21          0.1030    -3.5500    -2.9690 ca         1 153      -0.119000
     22 C22          0.4730    -3.4870    -1.6140 ca         1 153      -0.115500
     23 C23          0.0850     0.3870     1.4020 c3         1 153       0.144300
     24 C24          1.0770     1.0370     0.4430 ca         1 153      -0.079300
     25 C25          0.6320     1.6200    -0.7590 ca         1 153      -0.061000
     26 C26          1.5480     2.2280    -1.6310 ca         1 153      -0.118000
     27 C27          2.9140     2.2660    -1.3090 ca         1 153      -0.070000
     28 C28          3.3750     1.7060    -0.0980 ca         1 153      -0.205300
     29 C29          2.4460     1.0960     0.7710 ca         1 153      -0.058000
     30 C30          4.8640     1.7260     0.2660 c3         1 153       0.354300
     31 F31          5.5500     2.6890    -0.3910 f          1 153      -0.120000
     32 F32          5.0600     1.9470     1.5860 f          1 153      -0.120000
     33 F33          5.4560     0.5480    -0.0300 f          1 153      -0.120000
     34 H2          -0.1550    -3.0560     1.1980 h1         1 153       0.074700
     35 H9          -2.3800     0.0020    -2.0320 ha         1 153       0.126000
     36 H10         -3.9290     1.9190    -2.3850 ha         1 153       0.123000
     37 H12         -4.5990     2.1730     1.8670 ha         1 153       0.137000
     38 H161         2.3900    -1.5480     0.4850 hc         1 153       0.066700
     39 H162         2.1780    -3.2730     0.6000 hc         1 153       0.066700
     40 H18          2.3000    -0.6000    -1.6950 ha         1 153       0.120500
     41 H19          1.6370    -0.7070    -4.0830 ha         1 153       0.097500
     42 H20          0.2300    -2.5940    -4.9070 ha         1 153       0.094000
     43 H21         -0.5070    -4.3770    -3.3280 ha         1 153       0.097500
     44 H22          0.1440    -4.2680    -0.9320 ha         1 153       0.120500
     45 H231        -0.7490     1.0840     1.5320 h1         1 153       0.070200
     46 H232         0.5500     0.3140     2.3920 h1         1 153       0.070200
     47 H25         -0.4210     1.6060    -1.0190 ha         1 153       0.120000
     48 H26          1.1980     2.6690    -2.5620 ha         1 153       0.111000
     49 H27          3.6080     2.7330    -2.0050 ha         1 153       0.117000
     50 H29          2.7890     0.6520     1.7040 ha         1 153       0.133000
@<TRIPOS>BOND
     1     1     2 1   
     2     1     6 1   
     3     1    23 1   
     4     2     3 1   
     5     2    16 1   
     6     2    34 1   
     7     3     4 1   
     8     3     5 1   
     9     6     7 2   
    10     6     8 1   
    11     8     9 ar  
    12     8    13 ar  
    13     9    10 ar  
    14     9    35 1   
    15    10    11 ar  
    16    10    36 1   
    17    11    12 ar  
    18    11    14 1   
    19    12    13 ar  
    20    12    37 1   
    21    13    15 1   
    22    16    17 1   
    23    16    38 1   
    24    16    39 1   
    25    17    18 ar  
    26    17    22 ar  
    27    18    19 ar  
    28    18    40 1   
    29    19    20 ar  
    30    19    41 1   
    31    20    21 ar  
    32    20    42 1   
    33    21    22 ar  
    34    21    43 1   
    35    22    44 1   
    36    23    24 1   
    37    23    45 1   
    38    23    46 1   
    39    24    25 ar  
    40    24    29 ar  
    41    25    26 ar  
    42    25    47 1   
    43    26    27 ar  
    44    26    48 1   
    45    27    28 ar  
    46    27    49 1   
    47    28    29 ar  
    48    28    30 1   
    49    29    50 1   
    50    30    31 1   
    51    30    32 1   
    52    30    33 1   
@<TRIPOS>SUBSTRUCTURE
     1 153         1 TEMP              0 ****  ****    0 ROOT
