@<TRIPOS>MOLECULE
153
   50    52     1     0     0
SMALL
abcg2


@<TRIPOS>ATOM
      1 N1          -0.5960    -1.0590     0.9510 n          1 153      -0.339800
      2 C2           0.1130    -2.3100     1.1930 c3         1 153      -0.058300
      3 C3           0.2360    -2.6210     2.7150 c          1 153       0.716000
      4 O4          -0.3810    -1.8870     3.5010 o          1 153      -0.714000
      5 O5           0.9300    -3.6190     2.9930 o          1 153      -0.714000
      6 C6          -1.9300    -1.1140     0.7880 c          1 153       0.619700
      7 O7          -2.5680    -2.1550     0.7070 o          1 153      -0.601100
      8 C8          -2.6900     0.1720     0.5970 ca         1 153      -0.112600
      9 C9          -3.0430     0.5510    -0.6950 ca         1 153      -0.077000
     10 C10         -3.8380     1.6600    -0.9310 ca         1 153      -0.119000
     11 C11         -4.3080     2.3880     0.1500 ca         1 153       0.124000
     12 C12         -4.0020     2.0240     1.4510 ca         1 153      -0.113000
     13 C13         -3.2020     0.9100     1.6560 ca         1 153       0.140000
     14 CL14        -5.3020     3.7760    -0.1220 cl         1 153      -0.220000
     15 CL15        -2.8290     0.4450     3.2760 cl         1 153      -0.135000
     16 C16          1.4640    -2.3930     0.4880 c3         1 153      -0.036100
     17 C17          1.4540    -2.2200    -1.0080 ca         1 153      -0.045300
     18 C18          2.6210    -1.8070    -1.6470 ca         1 153      -0.115500
     19 C19          2.6730    -1.6590    -3.0240 ca         1 153      -0.119000
     20 C20          1.5490    -1.9210    -3.7960 ca         1 153      -0.139000
     21 C21          0.3800    -2.3360    -3.1740 ca         1 153      -0.119000
     22 C22          0.3340    -2.4850    -1.7930 ca         1 153      -0.115500
     23 C23          0.1080     0.1770     1.2370 c3         1 153       0.144300
     24 C24          1.0050     0.6830     0.1350 ca         1 153      -0.079300
     25 C25          0.5330     0.8730    -1.1610 ca         1 153      -0.061000
     26 C26          1.3540     1.3930    -2.1450 ca         1 153      -0.118000
     27 C27          2.6720     1.7220    -1.8570 ca         1 153      -0.070000
     28 C28          3.1520     1.5310    -0.5720 ca         1 153      -0.205300
     29 C29          2.3180     1.0200     0.4200 ca         1 153      -0.058000
     30 C30          4.5800     1.8080    -0.2290 c3         1 153       0.354300
     31 F31          5.2250     2.4720    -1.1930 f          1 153      -0.120000
     32 F32          4.6990     2.5320     0.8930 f          1 153      -0.120000
     33 F33          5.2650     0.6710    -0.0170 f          1 153      -0.120000
     34 H2          -0.5130    -3.1040     0.7820 h1         1 153       0.074700
     35 H9          -2.6950    -0.0320    -1.5380 ha         1 153       0.126000
     36 H10         -4.0920     1.9440    -1.9420 ha         1 153       0.123000
     37 H12         -4.3790     2.5910     2.2900 ha         1 153       0.137000
     38 H161         2.1830    -1.6940     0.9230 hc         1 153       0.066700
     39 H162         1.8570    -3.3840     0.7240 hc         1 153       0.066700
     40 H18          3.4970    -1.5740    -1.0530 ha         1 153       0.120500
     41 H19          3.5880    -1.3230    -3.4940 ha         1 153       0.097500
     42 H20          1.5820    -1.8000    -4.8720 ha         1 153       0.094000
     43 H21         -0.5060    -2.5420    -3.7620 ha         1 153       0.097500
     44 H22         -0.5930    -2.8080    -1.3370 ha         1 153       0.120500
     45 H231        -0.6140     0.9590     1.4670 h1         1 153       0.070200
     46 H232         0.6880     0.0400     2.1510 h1         1 153       0.070200
     47 H25         -0.4830     0.6020    -1.4110 ha         1 153       0.120000
     48 H26          0.9750     1.5320    -3.1480 ha         1 153       0.111000
     49 H27          3.3040     2.1150    -2.6420 ha         1 153       0.117000
     50 H29          2.6920     0.8680     1.4270 ha         1 153       0.133000
@<TRIPOS>BOND
     1     1     2 1   
     2     1     6 1   
     3     1    23 1   
     4     2     3 1   
     5     2    16 1   
     6     2    34 1   
     7     3     4 1   
     8     3     5 1   
     9     6     7 2   
    10     6     8 1   
    11     8     9 ar  
    12     8    13 ar  
    13     9    10 ar  
    14     9    35 1   
    15    10    11 ar  
    16    10    36 1   
    17    11    12 ar  
    18    11    14 1   
    19    12    13 ar  
    20    12    37 1   
    21    13    15 1   
    22    16    17 1   
    23    16    38 1   
    24    16    39 1   
    25    17    18 ar  
    26    17    22 ar  
    27    18    19 ar  
    28    18    40 1   
    29    19    20 ar  
    30    19    41 1   
    31    20    21 ar  
    32    20    42 1   
    33    21    22 ar  
    34    21    43 1   
    35    22    44 1   
    36    23    24 1   
    37    23    45 1   
    38    23    46 1   
    39    24    25 ar  
    40    24    29 ar  
    41    25    26 ar  
    42    25    47 1   
    43    26    27 ar  
    44    26    48 1   
    45    27    28 ar  
    46    27    49 1   
    47    28    29 ar  
    48    28    30 1   
    49    29    50 1   
    50    30    31 1   
    51    30    32 1   
    52    30    33 1   
@<TRIPOS>SUBSTRUCTURE
     1 153         1 TEMP              0 ****  ****    0 ROOT
