@<TRIPOS>MOLECULE
154
   57    61     1     0     0
SMALL
No Charge or Current Charge


@<TRIPOS>ATOM
      1 N1           6.6440    35.1520    75.7070 n          1 154      -0.343800
      2 C2           6.6470    34.0010    74.7290 c3         1 154      -0.039300
      3 C3           5.2900    33.2290    74.6930 c          1 154       0.700000
      4 O4           4.3730    33.7310    74.0590 o          1 154      -0.712000
      5 O5           5.1890    32.1630    75.2830 o          1 154      -0.712000
      6 C6           7.0320    36.4780    75.3630 c          1 154       0.615700
      7 O7           7.0290    37.3700    76.2060 o          1 154      -0.632100
      8 C8           7.3600    36.8190    73.9330 ca         1 154      -0.104600
      9 C9           6.3950    36.6500    72.9140 ca         1 154      -0.051000
     10 C10          6.7000    36.9890    71.5840 ca         1 154      -0.107000
     11 C11          7.9600    37.5170    71.2670 ca         1 154       0.130000
     12 C12          8.9100    37.7230    72.2760 ca         1 154      -0.120000
     13 C13          8.6110    37.3870    73.6070 ca         1 154       0.152000
     14 Cl14         8.3420    37.9370    69.6030 cl         1 154      -0.230000
     15 Cl15         9.8470    37.6660    74.8350 cl         1 154      -0.202000
     16 C16          7.8640    33.0480    74.8920 c3         1 154      -0.035100
     17 C17          9.2020    33.6970    74.5530 ca         1 154      -0.051300
     18 C18         10.2060    33.8170    75.5340 ca         1 154      -0.112000
     19 C19         11.4500    34.3860    75.2120 ca         1 154      -0.113000
     20 C20         11.7030    34.8310    73.9040 ca         1 154      -0.133000
     21 C21         10.7100    34.7070    72.9180 ca         1 154      -0.113000
     22 C22          9.4650    34.1400    73.2410 ca         1 154      -0.112000
     23 C23          6.2630    34.8560    77.1160 c3         1 154       0.167300
     24 C24          7.4480    34.4900    77.9760 cc         1 154      -0.161300
     25 C25          8.5640    35.2430    78.2620 cd         1 154      -0.129000
     26 C26          9.4910    34.5940    79.1220 cd         1 154      -0.070000
     27 C27          9.0780    33.3410    79.4980 cc         1 154      -0.212800
     28 S28          7.5100    32.9370    78.8120 ss         1 154       0.186000
     29 C29          9.8480    32.4830    80.3490 cc         1 154       0.160900
     30 C30          9.4940    31.2170    80.7630 cd         1 154      -0.259200
     31 C31         10.5540    30.7380    81.5880 ca         1 154      -0.090800
     32 C32         10.7380    29.5330    82.2750 ca         1 154      -0.071000
     33 C33         11.9320    29.3850    83.0140 ca         1 154      -0.135000
     34 C34         12.8910    30.4290    83.0470 ca         1 154      -0.108000
     35 C35         12.6660    31.6320    82.3390 ca         1 154      -0.102000
     36 C36         11.4750    31.7560    81.6120 ca         1 154       0.056100
     37 O37         11.0890    32.8530    80.8660 os         1 154      -0.183200
     38 H2           6.7410    34.3890    73.7150 h1         1 154       0.051700
     39 H9           5.4090    36.2550    73.1550 ha         1 154       0.174000
     40 H10          5.9590    36.8450    70.8020 ha         1 154       0.134000
     41 H12          9.8810    38.1430    72.0290 ha         1 154       0.133000
     42 H161         7.7230    32.1910    74.2230 hc         1 154       0.066200
     43 H162         7.8760    32.6310    75.9040 hc         1 154       0.066200
     44 H18         10.0260    33.4630    76.5450 ha         1 154       0.111500
     45 H19         12.2190    34.4780    75.9760 ha         1 154       0.101500
     46 H20         12.6660    35.2710    73.6540 ha         1 154       0.097000
     47 H21         10.9040    35.0490    71.9040 ha         1 154       0.101500
     48 H22          8.7070    34.0420    72.4680 ha         1 154       0.111500
     49 H231         5.5360    34.0350    77.1430 h1         1 154       0.082700
     50 H232         5.7580    35.7260    77.5560 h1         1 154       0.082700
     51 H25          8.7310    36.2390    77.8650 ha         1 154       0.157000
     52 H26         10.4270    35.0440    79.4380 ha         1 154       0.136000
     53 H30          8.5800    30.6910    80.5040 ha         1 154       0.215000
     54 H32          9.9930    28.7420    82.2390 ha         1 154       0.115000
     55 H33         12.1160    28.4640    83.5630 ha         1 154       0.106000
     56 H34         13.8060    30.3030    83.6200 ha         1 154       0.107000
     57 H35         13.3950    32.4390    82.3570 ha         1 154       0.126000
@<TRIPOS>BOND
     1     1     2 1   
     2     1     6 1   
     3     1    23 1   
     4     2     3 1   
     5     2    16 1   
     6     2    38 1   
     7     3     4 1   
     8     3     5 1   
     9     6     7 2   
    10     6     8 1   
    11     8     9 ar  
    12     8    13 ar  
    13     9    10 ar  
    14     9    39 1   
    15    10    11 ar  
    16    10    40 1   
    17    11    12 ar  
    18    11    14 1   
    19    12    13 ar  
    20    12    41 1   
    21    13    15 1   
    22    16    17 1   
    23    16    42 1   
    24    16    43 1   
    25    17    18 ar  
    26    17    22 ar  
    27    18    19 ar  
    28    18    44 1   
    29    19    20 ar  
    30    19    45 1   
    31    20    21 ar  
    32    20    46 1   
    33    21    22 ar  
    34    21    47 1   
    35    22    48 1   
    36    23    24 1   
    37    23    49 1   
    38    23    50 1   
    39    24    25 2   
    40    24    28 1   
    41    25    26 1   
    42    25    51 1   
    43    26    27 2   
    44    26    52 1   
    45    27    28 1   
    46    27    29 1   
    47    29    30 2   
    48    29    37 1   
    49    30    31 1   
    50    30    53 1   
    51    31    32 ar  
    52    31    36 ar  
    53    32    33 ar  
    54    32    54 1   
    55    33    34 ar  
    56    33    55 1   
    57    34    35 ar  
    58    34    56 1   
    59    35    36 ar  
    60    35    57 1   
    61    36    37 1   
@<TRIPOS>SUBSTRUCTURE
     1 154         1 TEMP              0 ****  ****    0 ROOT
