@<TRIPOS>MOLECULE
154
   57    61     1     0     0
SMALL
abcg2


@<TRIPOS>ATOM
      1 N1           6.7790    35.1460    75.4360 n          1 154      -0.343800
      2 C2           6.7660    34.1770    74.3360 c3         1 154      -0.039300
      3 C3           5.3100    33.7930    73.9070 c          1 154       0.700000
      4 O4           5.2360    32.9420    72.9900 o          1 154      -0.712000
      5 O5           4.3620    34.3800    74.4760 o          1 154      -0.712000
      6 C6           6.8620    36.4800    75.2620 c          1 154       0.615700
      7 O7           6.7690    37.2870    76.1910 o          1 154      -0.632100
      8 C8           7.0540    37.0080    73.8670 ca         1 154      -0.104600
      9 C9           5.9890    36.9970    72.9660 ca         1 154      -0.051000
     10 C10          6.1020    37.5670    71.7070 ca         1 154      -0.107000
     11 C11          7.3080    38.1510    71.3440 ca         1 154       0.130000
     12 C12          8.3890    38.1840    72.2120 ca         1 154      -0.120000
     13 C13          8.2440    37.6170    73.4720 ca         1 154       0.152000
     14 CL14         7.4760    38.8620    69.7570 cl         1 154      -0.230000
     15 CL15         9.6130    37.6700    74.5530 cl         1 154      -0.202000
     16 C16          7.6060    32.9270    74.6260 c3         1 154      -0.035100
     17 C17          9.0830    33.1510    74.8470 ca         1 154      -0.051300
     18 C18          9.7640    32.3850    75.7940 ca         1 154      -0.112000
     19 C19         11.1240    32.5560    76.0160 ca         1 154      -0.113000
     20 C20         11.8360    33.5030    75.2850 ca         1 154      -0.133000
     21 C21         11.1730    34.2640    74.3290 ca         1 154      -0.113000
     22 C22          9.8110    34.0860    74.1110 ca         1 154      -0.112000
     23 C23          6.4340    34.6650    76.7730 c3         1 154       0.167300
     24 C24          7.6380    34.3950    77.6280 cc         1 154      -0.161300
     25 C25          8.7910    35.1210    77.7360 cd         1 154      -0.129000
     26 C26          9.7240    34.5600    78.6400 cd         1 154      -0.070000
     27 C27          9.2760    33.3980    79.2250 cc         1 154      -0.212800
     28 S28          7.6860    33.0020    78.6510 ss         1 154       0.186000
     29 C29          9.9720    32.5520    80.1510 cc         1 154       0.160900
     30 C30          9.6760    31.3500    80.7230 cd         1 154      -0.259200
     31 C31         10.7940    31.0010    81.5550 ca         1 154      -0.090800
     32 C32         11.1220    29.9250    82.3870 ca         1 154      -0.071000
     33 C33         12.3450    29.9490    83.0440 ca         1 154      -0.135000
     34 C34         13.2390    31.0180    82.8860 ca         1 154      -0.108000
     35 C35         12.9350    32.0990    82.0620 ca         1 154      -0.102000
     36 C36         11.7130    32.0550    81.4180 ca         1 154       0.056100
     37 O37         11.2130    33.0020    80.5650 os         1 154      -0.183200
     38 H2           7.1970    34.6740    73.4710 h1         1 154       0.051700
     39 H9           5.0630    36.5220    73.2610 ha         1 154       0.174000
     40 H10          5.2690    37.5530    71.0180 ha         1 154       0.134000
     41 H12          9.3230    38.6390    71.9200 ha         1 154       0.133000
     42 H161         7.4610    32.2770    73.7620 hc         1 154       0.066200
     43 H162         7.1950    32.3870    75.4800 hc         1 154       0.066200
     44 H18          9.2140    31.6610    76.3830 ha         1 154       0.111500
     45 H19         11.6240    31.9620    76.7710 ha         1 154       0.101500
     46 H20         12.8950    33.6490    75.4630 ha         1 154       0.097000
     47 H21         11.7130    35.0080    73.7560 ha         1 154       0.101500
     48 H22          9.3160    34.6940    73.3650 ha         1 154       0.111500
     49 H231         5.8320    33.7660    76.6620 h1         1 154       0.082700
     50 H232         5.8050    35.4190    77.2470 h1         1 154       0.082700
     51 H25          8.9730    36.0190    77.1640 ha         1 154       0.157000
     52 H26         10.6980    34.9780    78.8440 ha         1 154       0.136000
     53 H30          8.7750    30.7800    80.5660 ha         1 154       0.215000
     54 H32         10.4390    29.0950    82.5150 ha         1 154       0.115000
     55 H33         12.6180    29.1260    83.6920 ha         1 154       0.106000
     56 H34         14.1850    31.0040    83.4130 ha         1 154       0.107000
     57 H35         13.6150    32.9290    81.9310 ha         1 154       0.126000
@<TRIPOS>BOND
     1     1     2 1   
     2     1     6 1   
     3     1    23 1   
     4     2     3 1   
     5     2    16 1   
     6     2    38 1   
     7     3     4 1   
     8     3     5 1   
     9     6     7 2   
    10     6     8 1   
    11     8     9 ar  
    12     8    13 ar  
    13     9    10 ar  
    14     9    39 1   
    15    10    11 ar  
    16    10    40 1   
    17    11    12 ar  
    18    11    14 1   
    19    12    13 ar  
    20    12    41 1   
    21    13    15 1   
    22    16    17 1   
    23    16    42 1   
    24    16    43 1   
    25    17    18 ar  
    26    17    22 ar  
    27    18    19 ar  
    28    18    44 1   
    29    19    20 ar  
    30    19    45 1   
    31    20    21 ar  
    32    20    46 1   
    33    21    22 ar  
    34    21    47 1   
    35    22    48 1   
    36    23    24 1   
    37    23    49 1   
    38    23    50 1   
    39    24    25 2   
    40    24    28 1   
    41    25    26 1   
    42    25    51 1   
    43    26    27 2   
    44    26    52 1   
    45    27    28 1   
    46    27    29 1   
    47    29    30 2   
    48    29    37 1   
    49    30    31 1   
    50    30    53 1   
    51    31    32 ar  
    52    31    36 ar  
    53    32    33 ar  
    54    32    54 1   
    55    33    34 ar  
    56    33    55 1   
    57    34    35 ar  
    58    34    56 1   
    59    35    36 ar  
    60    35    57 1   
    61    36    37 1   
@<TRIPOS>SUBSTRUCTURE
     1 154         1 TEMP              0 ****  ****    0 ROOT
