@<TRIPOS>MOLECULE
155
   53    56     1     0     0
SMALL
bcc


@<TRIPOS>ATOM
      1 N18         -0.8840     1.0150     8.4090 n2         1 155      -0.826100
      2 C17         -0.1270     0.0850     7.9690 ce         1 155       0.658800
      3 N19          0.5270    -0.8470     8.7200 nv         1 155      -0.964800
      4 C12          0.1320     0.0110     6.5030 ca         1 155      -0.134900
      5 C13         -0.8020     0.5080     5.6290 ca         1 155      -0.069000
      6 C4          -0.6000     0.4460     4.2350 ca         1 155      -0.032000
      7 C5          -1.5580     0.9380     3.3170 ca         1 155      -0.110000
      8 C6          -1.3450     0.8540     1.9710 ca         1 155      -0.117000
      9 C1          -0.1520     0.2810     1.4640 ca         1 155      -0.154600
     10 C2           0.8010    -0.1800     2.3370 ca         1 155      -0.053000
     11 C3           0.5970    -0.1220     3.7320 ca         1 155      -0.042000
     12 C10          1.5530    -0.6160     4.6480 ca         1 155      -0.114000
     13 C11          1.3270    -0.5550     5.9940 ca         1 155      -0.113000
     14 C20          0.1320     0.1700     0.0010 c          1 155       0.687700
     15 O21          1.2750     0.1380    -0.4230 o          1 155      -0.581100
     16 N22         -0.9680     0.0880    -0.7870 ns         1 155      -0.468100
     17 C23         -1.0320    -0.0680    -2.1770 ca         1 155       0.061600
     18 C28          0.0180     0.2250    -3.0430 ca         1 155      -0.116000
     19 C27         -0.1350     0.0500    -4.4170 ca         1 155      -0.153900
     20 C26         -1.3450    -0.4090    -4.9410 ca         1 155      -0.087300
     21 C25         -2.3890    -0.6910    -4.0710 ca         1 155      -0.101000
     22 C24         -2.2390    -0.5260    -2.7060 ca         1 155      -0.171000
     23 C32         -1.4420    -0.5900    -6.4240 c6         1 155      -0.055100
     24 C33         -0.6150     0.4830    -7.1080 c6         1 155       0.103800
     25 N34          0.7450     0.5590    -6.6110 n2         1 155      -0.584900
     26 C35          0.9610     0.3530    -5.3760 ce         1 155       0.472900
     27 C40          2.3850     0.4050    -4.8660 c3         1 155      -0.099000
     28 C41          2.8310    -0.9880    -4.4070 c3         1 155      -0.081100
     29 C45          3.3590     0.9630    -5.8940 c3         1 155      -0.081100
     30 H18         -1.0150     0.9360     9.4140 hn         1 155       0.373400
     31 H191         0.2650    -0.9260     9.6900 hn         1 155       0.407300
     32 H192         0.7600    -1.7300     8.2950 hn         1 155       0.407300
     33 H13         -1.7170     0.9430     6.0110 ha         1 155       0.158000
     34 H5          -2.4670     1.3880     3.6940 ha         1 155       0.140000
     35 H6          -2.0910     1.2620     1.3000 ha         1 155       0.132000
     36 H2           1.7210    -0.6110     1.9630 ha         1 155       0.155000
     37 H10          2.4750    -1.0410     4.2710 ha         1 155       0.139000
     38 H11          2.0830    -0.9280     6.6720 ha         1 155       0.140000
     39 H22         -1.8540    -0.0170    -0.3170 hn         1 155       0.320500
     40 H28          0.9480     0.5980    -2.6480 ha         1 155       0.167000
     41 H25         -3.3350    -1.0460    -4.4620 ha         1 155       0.133000
     42 H24         -3.0670    -0.7520    -2.0450 ha         1 155       0.128000
     43 H321        -2.4790    -0.5490    -6.7610 hc         1 155       0.057700
     44 H322        -1.0570    -1.5780    -6.7010 hc         1 155       0.057700
     45 H331        -1.0890     1.4640    -6.9760 h1         1 155       0.060200
     46 H332        -0.5770     0.3050    -8.1840 h1         1 155       0.060200
     47 H40          2.4070     1.0690    -3.9950 hc         1 155       0.058700
     48 H411         3.8570    -0.9510    -4.0380 hc         1 155       0.038367
     49 H412         2.2080    -1.3850    -3.6060 hc         1 155       0.038367
     50 H413         2.7990    -1.6940    -5.2390 hc         1 155       0.038367
     51 H451         3.4290     0.3160    -6.7680 hc         1 155       0.038367
     52 H452         3.0640     1.9540    -6.2370 hc         1 155       0.038367
     53 H453         4.3530     1.0390    -5.4510 hc         1 155       0.038367
@<TRIPOS>BOND
     1     1     2 2   
     2     1    30 1   
     3     2     3 1   
     4     2     4 1   
     5     3    31 1   
     6     3    32 1   
     7     4     5 ar  
     8     4    13 ar  
     9     5     6 ar  
    10     5    33 1   
    11     6     7 ar  
    12     6    11 ar  
    13     7     8 ar  
    14     7    34 1   
    15     8     9 ar  
    16     8    35 1   
    17     9    10 ar  
    18     9    14 1   
    19    10    11 ar  
    20    10    36 1   
    21    11    12 ar  
    22    12    13 ar  
    23    12    37 1   
    24    13    38 1   
    25    14    15 2   
    26    14    16 1   
    27    16    17 1   
    28    16    39 1   
    29    17    18 ar  
    30    17    22 ar  
    31    18    19 ar  
    32    18    40 1   
    33    19    20 ar  
    34    19    26 1   
    35    20    21 ar  
    36    20    23 1   
    37    21    22 ar  
    38    21    41 1   
    39    22    42 1   
    40    23    24 1   
    41    23    43 1   
    42    23    44 1   
    43    24    25 1   
    44    24    45 1   
    45    24    46 1   
    46    25    26 2   
    47    26    27 1   
    48    27    28 1   
    49    27    29 1   
    50    27    47 1   
    51    28    48 1   
    52    28    49 1   
    53    28    50 1   
    54    29    51 1   
    55    29    52 1   
    56    29    53 1   
@<TRIPOS>SUBSTRUCTURE
     1 155         1 TEMP              0 ****  ****    0 ROOT
