@<TRIPOS>MOLECULE
155
   53    56     1     0     0
SMALL
No Charge or Current Charge


@<TRIPOS>ATOM
      1 N18         -1.3400     0.5200     8.5740 n2         1 155      -0.826100
      2 C17         -0.2150     0.1600     8.1110 ce         1 155       0.658800
      3 N19          0.7240    -0.2750     8.9800 nv         1 155      -1.075200
      4 C12          0.0870     0.0860     6.6420 ca         1 155      -0.134900
      5 C13         -0.9670     0.1080     5.6980 ca         1 155      -0.051000
      6 C4          -0.7020     0.0690     4.3160 ca         1 155      -0.032000
      7 C5          -1.7590     0.0780     3.3900 ca         1 155      -0.092000
      8 C6          -1.4960     0.0380     2.0100 ca         1 155      -0.099000
      9 C1          -0.1630    -0.0100     1.5290 ca         1 155      -0.154600
     10 C2           0.8920    -0.0160     2.4720 ca         1 155      -0.035000
     11 C3           0.6270     0.0230     3.8540 ca         1 155      -0.042000
     12 C10          1.6840     0.0220     4.7810 ca         1 155      -0.096000
     13 C11          1.4190     0.0600     6.1610 ca         1 155      -0.095000
     14 C20          0.1650    -0.0530     0.0470 c          1 155       0.620700
     15 O21          1.3280    -0.0950    -0.3430 o          1 155      -0.581100
     16 N22         -0.9270    -0.0520    -0.8140 ns         1 155      -0.142000
     17 C23         -1.0340    -0.0560    -2.2330 ca         1 155      -0.031000
     18 C28          0.0610     0.1620    -3.1000 ca         1 155      -0.098000
     19 C27         -0.1040     0.1410    -4.5090 ca         1 155      -0.153900
     20 C26         -1.4020    -0.0640    -5.0290 ca         1 155      -0.087300
     21 C25         -2.4940    -0.2750    -4.1710 ca         1 155      -0.083000
     22 C24         -2.3090    -0.2710    -2.7820 ca         1 155      -0.153000
     23 C32         -1.6000    -0.0550    -6.5380 c6         1 155      -0.055100
     24 C33         -0.5590     0.8630    -7.2030 c6         1 155       0.103800
     25 N34          0.8130     0.6010    -6.7300 n2         1 155      -0.584900
     26 C35          1.0520     0.3710    -5.4670 ce         1 155       0.472900
     27 C40          2.4910     0.1210    -4.9810 c3         1 155      -0.099000
     28 C41          2.7280    -1.3690    -4.6300 c3         1 155      -0.081100
     29 C45          3.5840     0.6210    -5.9640 c3         1 155      -0.081100
     30 H18         -1.2270     0.6930     9.5790 hn         1 155       0.373400
     31 H191         0.3750    -0.6220     9.8660 hn         1 155       0.462500
     32 H192         1.4730    -0.8210     8.5710 hn         1 155       0.462500
     33 H13         -1.9990     0.1470     6.0400 ha         1 155       0.140000
     34 H5          -2.7890     0.1140     3.7370 ha         1 155       0.122000
     35 H6          -2.3440     0.0470     1.3300 ha         1 155       0.114000
     36 H2           1.9250    -0.0500     2.1330 ha         1 155       0.137000
     37 H10          2.7150    -0.0020     4.4350 ha         1 155       0.121000
     38 H11          2.2600     0.0820     6.8500 ha         1 155       0.122000
     39 H22         -1.8210    -0.0470    -0.3430 hn         1 155       0.154000
     40 H28          1.0390     0.3570    -2.6810 ha         1 155       0.149000
     41 H25         -3.4880    -0.4400    -4.5820 ha         1 155       0.115000
     42 H24         -3.1640    -0.4350    -2.1300 ha         1 155       0.110000
     43 H321        -2.6130     0.2820    -6.8000 hc         1 155       0.057700
     44 H322        -1.4950    -1.0770    -6.9260 hc         1 155       0.057700
     45 H331        -0.8070     1.9120    -6.9820 h1         1 155       0.060200
     46 H332        -0.5960     0.7380    -8.2950 h1         1 155       0.060200
     47 H40          2.6520     0.7020    -4.0660 hc         1 155       0.058700
     48 H411         3.7430    -1.5210    -4.2440 hc         1 155       0.038367
     49 H412         2.0240    -1.7140    -3.8640 hc         1 155       0.038367
     50 H413         2.6000    -2.0000    -5.5180 hc         1 155       0.038367
     51 H451         3.5540     0.0620    -6.9070 hc         1 155       0.038367
     52 H452         3.4460     1.6860    -6.1880 hc         1 155       0.038367
     53 H453         4.5830     0.4970    -5.5280 hc         1 155       0.038367
@<TRIPOS>BOND
     1     1     2 2   
     2     1    30 1   
     3     2     3 1   
     4     2     4 1   
     5     3    31 1   
     6     3    32 1   
     7     4     5 ar  
     8     4    13 ar  
     9     5     6 ar  
    10     5    33 1   
    11     6     7 ar  
    12     6    11 ar  
    13     7     8 ar  
    14     7    34 1   
    15     8     9 ar  
    16     8    35 1   
    17     9    10 ar  
    18     9    14 1   
    19    10    11 ar  
    20    10    36 1   
    21    11    12 ar  
    22    12    13 ar  
    23    12    37 1   
    24    13    38 1   
    25    14    15 2   
    26    14    16 1   
    27    16    17 1   
    28    16    39 1   
    29    17    18 ar  
    30    17    22 ar  
    31    18    19 ar  
    32    18    40 1   
    33    19    20 ar  
    34    19    26 1   
    35    20    21 ar  
    36    20    23 1   
    37    21    22 ar  
    38    21    41 1   
    39    22    42 1   
    40    23    24 1   
    41    23    43 1   
    42    23    44 1   
    43    24    25 1   
    44    24    45 1   
    45    24    46 1   
    46    25    26 2   
    47    26    27 1   
    48    27    28 1   
    49    27    29 1   
    50    27    47 1   
    51    28    48 1   
    52    28    49 1   
    53    28    50 1   
    54    29    51 1   
    55    29    52 1   
    56    29    53 1   
@<TRIPOS>SUBSTRUCTURE
     1 155         1 TEMP              0 ****  ****    0 ROOT
