@<TRIPOS>MOLECULE
156
   52    54     1     0     0
SMALL
abcg2


@<TRIPOS>ATOM
      1 C1           0.6010     0.1570     7.8600 c          1 156       0.709600
      2 C2           0.1150     0.0870     6.4170 ca         1 156      -0.101600
      3 C3          -1.2440     0.0310     6.1210 ca         1 156      -0.102000
      4 C4          -1.6820    -0.0310     4.8080 ca         1 156      -0.104000
      5 C5          -0.7750    -0.0370     3.7450 ca         1 156      -0.136800
      6 C8          -1.2950    -0.0990     2.3870 ce         1 156      -0.019200
      7 C9          -0.5820    -0.0920     1.2500 cf         1 156      -0.370200
      8 C6           0.5910     0.0170     4.0450 ca         1 156      -0.104000
      9 C7           1.0230     0.0770     5.3570 ca         1 156      -0.102000
     10 C10         -1.2520    -0.1520    -0.0610 c          1 156       0.589900
     11 C11         -0.4200    -0.1080    -1.2940 ca         1 156      -0.155600
     12 C12         -1.0640    -0.0840    -2.5280 ca         1 156      -0.065000
     13 C13         -0.3800    -0.0350    -3.7400 ca         1 156      -0.079300
     14 C14         -1.1880    -0.0100    -5.0320 c6         1 156       0.004300
     15 C15         -0.2980     0.4230    -6.2020 c6         1 156      -0.066400
     16 C16          1.0340    -0.2970    -6.2190 c6         1 156      -0.065400
     17 C17          1.8790     0.0010    -4.9770 c6         1 156      -0.000700
     18 C18          1.0240    -0.0440    -3.7190 ca         1 156      -0.043300
     19 C19          1.6670    -0.0580    -2.4780 ca         1 156      -0.132000
     20 C20          0.9740    -0.0870    -1.2850 ca         1 156      -0.067000
     21 C21         -2.3490     0.9870    -4.9440 c3         1 156      -0.082100
     22 C22         -1.7590    -1.4120    -5.2860 c3         1 156      -0.082100
     23 C23          3.0020    -1.0410    -4.9170 c3         1 156      -0.080600
     24 C24          2.5050     1.4000    -5.0910 c3         1 156      -0.080600
     25 O1          -0.2780     0.1620     8.7420 o          1 156      -0.714000
     26 O2           1.8340     0.2050     8.0290 o          1 156      -0.714000
     27 O3          -2.4680    -0.2300    -0.1450 o          1 156      -0.565100
     28 H3          -1.9660     0.0360     6.9260 ha         1 156       0.131500
     29 H4          -2.7450    -0.0730     4.6010 ha         1 156       0.090000
     30 H8          -2.3770    -0.1510     2.3090 ha         1 156       0.178000
     31 H9           0.4970    -0.0350     1.2850 ha         1 156       0.181000
     32 H6           1.3260     0.0110     3.2510 ha         1 156       0.090000
     33 H7           2.0830     0.1180     5.5650 ha         1 156       0.131500
     34 H12         -2.1450    -0.0980    -2.5340 ha         1 156       0.130000
     35 H151        -0.1320     1.5040    -6.1440 hc         1 156       0.039200
     36 H152        -0.8360     0.2500    -7.1380 hc         1 156       0.039200
     37 H161         1.6040    -0.0130    -7.1080 hc         1 156       0.038700
     38 H162         0.8720    -1.3760    -6.3000 hc         1 156       0.038700
     39 H19          2.7480    -0.0450    -2.4350 ha         1 156       0.108000
     40 H20          1.5410    -0.0990    -0.3650 ha         1 156       0.122000
     41 H211        -3.1060     0.7010    -4.2140 hc         1 156       0.034867
     42 H212        -1.9930     1.9860    -4.6870 hc         1 156       0.034867
     43 H213        -2.8500     1.0500    -5.9130 hc         1 156       0.034867
     44 H221        -2.4160    -1.7230    -4.4720 hc         1 156       0.034867
     45 H222        -2.3450    -1.4240    -6.2080 hc         1 156       0.034867
     46 H223        -0.9760    -2.1670    -5.3760 hc         1 156       0.034867
     47 H231         3.7200    -0.8500    -4.1200 hc         1 156       0.033867
     48 H232         2.6000    -2.0460    -4.7740 hc         1 156       0.033867
     49 H233         3.5570    -1.0350    -5.8570 hc         1 156       0.033867
     50 H241         3.1240     1.6310    -4.2230 hc         1 156       0.033867
     51 H242         3.1420     1.4570    -5.9770 hc         1 156       0.033867
     52 H243         1.7490     2.1820    -5.1700 hc         1 156       0.033867
@<TRIPOS>BOND
     1     1     2 1   
     2     1    25 1   
     3     1    26 1   
     4     2     3 ar  
     5     2     9 ar  
     6     3     4 ar  
     7     3    28 1   
     8     4     5 ar  
     9     4    29 1   
    10     5     6 1   
    11     5     8 ar  
    12     6     7 2   
    13     6    30 1   
    14     7    10 1   
    15     7    31 1   
    16     8     9 ar  
    17     8    32 1   
    18     9    33 1   
    19    10    11 1   
    20    10    27 2   
    21    11    12 ar  
    22    11    20 ar  
    23    12    13 ar  
    24    12    34 1   
    25    13    14 1   
    26    13    18 ar  
    27    14    15 1   
    28    14    21 1   
    29    14    22 1   
    30    15    16 1   
    31    15    35 1   
    32    15    36 1   
    33    16    17 1   
    34    16    37 1   
    35    16    38 1   
    36    17    18 1   
    37    17    23 1   
    38    17    24 1   
    39    18    19 ar  
    40    19    20 ar  
    41    19    39 1   
    42    20    40 1   
    43    21    41 1   
    44    21    42 1   
    45    21    43 1   
    46    22    44 1   
    47    22    45 1   
    48    22    46 1   
    49    23    47 1   
    50    23    48 1   
    51    23    49 1   
    52    24    50 1   
    53    24    51 1   
    54    24    52 1   
@<TRIPOS>SUBSTRUCTURE
     1 156         1 TEMP              0 ****  ****    0 ROOT
