@<TRIPOS>MOLECULE
156
   52    54     1     0     0
SMALL
No Charge or Current Charge


@<TRIPOS>ATOM
      1 C1           0.5490     0.7610     7.8870 c          1 156       0.709600
      2 C2           0.0830     0.4320     6.4750 ca         1 156      -0.101600
      3 C3          -1.2030    -0.1100     6.2430 ca         1 156      -0.102000
      4 C4          -1.6310    -0.4130     4.9390 ca         1 156      -0.104000
      5 C5          -0.7910    -0.1850     3.8330 ca         1 156      -0.136800
      6 C8          -1.2790    -0.5190     2.4620 ce         1 156      -0.019200
      7 C9          -0.6490    -0.3470     1.2620 cf         1 156      -0.370200
      8 C6           0.4920     0.3540     4.0570 ca         1 156      -0.104000
      9 C7           0.9230     0.6580     5.3610 ca         1 156      -0.102000
     10 C10         -1.2460    -0.7110    -0.0550 c          1 156       0.589900
     11 C11         -0.4350    -0.5300    -1.3180 ca         1 156      -0.155600
     12 C12         -1.0890    -0.2770    -2.5400 ca         1 156      -0.065000
     13 C13         -0.3760    -0.0950    -3.7480 ca         1 156      -0.079300
     14 C14         -1.1700     0.2030    -5.0490 c6         1 156       0.004300
     15 C15         -0.2400     0.6940    -6.1950 c6         1 156      -0.066400
     16 C16          1.0290    -0.1650    -6.3100 c6         1 156      -0.065400
     17 C17          1.9000    -0.0860    -5.0250 c6         1 156      -0.000700
     18 C18          1.0440    -0.2300    -3.7370 ca         1 156      -0.043300
     19 C19          1.6910    -0.4730    -2.5040 ca         1 156      -0.132000
     20 C20          0.9680    -0.6230    -1.3130 ca         1 156      -0.067000
     21 C21         -2.2530     1.3080    -4.8210 c3         1 156      -0.082100
     22 C22         -1.9250    -1.0950    -5.4760 c3         1 156      -0.082100
     23 C23          2.9840    -1.2090    -5.1220 c3         1 156      -0.080600
     24 C24          2.6610     1.2760    -4.9620 c3         1 156      -0.080600
     25 O1          -0.2120     0.5470     8.8210 o          1 156      -0.714000
     26 O2           1.6700     1.2280     8.0410 o          1 156      -0.714000
     27 O3          -2.3880    -1.1520    -0.1090 o          1 156      -0.565100
     28 H3          -1.8770    -0.2990     7.0750 ha         1 156       0.131500
     29 H4          -2.6260    -0.8290     4.7920 ha         1 156       0.090000
     30 H8          -2.2790    -0.9600     2.4510 ha         1 156       0.178000
     31 H9           0.3400     0.0990     1.2400 ha         1 156       0.181000
     32 H6           1.1690     0.5430     3.2300 ha         1 156       0.090000
     33 H7           1.9190     1.0730     5.5020 ha         1 156       0.131500
     34 H12         -2.1740    -0.2200    -2.5440 ha         1 156       0.130000
     35 H151         0.0400     1.7420    -6.0300 hc         1 156       0.039200
     36 H152        -0.7800     0.6800    -7.1520 hc         1 156       0.039200
     37 H161         1.6130     0.1580    -7.1830 hc         1 156       0.038700
     38 H162         0.7500    -1.2080    -6.5130 hc         1 156       0.038700
     39 H19          2.7730    -0.5470    -2.4540 ha         1 156       0.108000
     40 H20          1.5110    -0.8360    -0.3950 ha         1 156       0.122000
     41 H211        -3.0590     0.9830    -4.1540 hc         1 156       0.034867
     42 H212        -1.8090     2.2120    -4.3880 hc         1 156       0.034867
     43 H213        -2.7280     1.5980    -5.7660 hc         1 156       0.034867
     44 H221        -2.6610    -1.4000    -4.7220 hc         1 156       0.034867
     45 H222        -2.4660    -0.9550    -6.4200 hc         1 156       0.034867
     46 H223        -1.2380    -1.9390    -5.6090 hc         1 156       0.034867
     47 H231         3.7500    -1.1280    -4.3440 hc         1 156       0.033867
     48 H232         2.5300    -2.2030    -5.0380 hc         1 156       0.033867
     49 H233         3.5100    -1.1700    -6.0840 hc         1 156       0.033867
     50 H241         3.3560     1.3100    -4.1140 hc         1 156       0.033867
     51 H242         3.2470     1.4540    -5.8720 hc         1 156       0.033867
     52 H243         1.9720     2.1200    -4.8410 hc         1 156       0.033867
@<TRIPOS>BOND
     1     1     2 1   
     2     1    25 1   
     3     1    26 1   
     4     2     3 ar  
     5     2     9 ar  
     6     3     4 ar  
     7     3    28 1   
     8     4     5 ar  
     9     4    29 1   
    10     5     6 1   
    11     5     8 ar  
    12     6     7 2   
    13     6    30 1   
    14     7    10 1   
    15     7    31 1   
    16     8     9 ar  
    17     8    32 1   
    18     9    33 1   
    19    10    11 1   
    20    10    27 2   
    21    11    12 ar  
    22    11    20 ar  
    23    12    13 ar  
    24    12    34 1   
    25    13    14 1   
    26    13    18 ar  
    27    14    15 1   
    28    14    21 1   
    29    14    22 1   
    30    15    16 1   
    31    15    35 1   
    32    15    36 1   
    33    16    17 1   
    34    16    37 1   
    35    16    38 1   
    36    17    18 1   
    37    17    23 1   
    38    17    24 1   
    39    18    19 ar  
    40    19    20 ar  
    41    19    39 1   
    42    20    40 1   
    43    21    41 1   
    44    21    42 1   
    45    21    43 1   
    46    22    44 1   
    47    22    45 1   
    48    22    46 1   
    49    23    47 1   
    50    23    48 1   
    51    23    49 1   
    52    24    50 1   
    53    24    51 1   
    54    24    52 1   
@<TRIPOS>SUBSTRUCTURE
     1 156         1 TEMP              0 ****  ****    0 ROOT
