@<TRIPOS>MOLECULE
157
   38    38     1     0     0
SMALL
abcg2


@<TRIPOS>ATOM
      1 C1           0.1940     0.3800     0.1140 c3         1 157      -0.069400
      2 C2          -0.4360    -0.1900     1.3790 c3         1 157      -0.079400
      3 C3           0.2870     0.2730     2.6380 c3         1 157      -0.074400
      4 C4          -0.3230    -0.3200     3.8980 c3         1 157      -0.178700
      5 C5           0.3320     0.1030     5.1950 c2         1 157       0.616200
      6 N6          -0.4070    -0.1970     6.3010 nv         1 157      -1.046200
      7 N7           1.4520     0.7030     5.3180 n2         1 157      -0.853100
      8 O8          -2.8280    -0.3020    -1.1700 o          1 157      -0.525100
      9 O9          -1.3560     0.5260    -4.0360 oh         1 157      -0.660000
     10 C10          0.3970     0.2570    -2.4120 c5         1 157      -0.059700
     11 C11          2.1470    -0.6130    -3.9200 c5         1 157      -0.076400
     12 C12          1.8310    -0.3000    -2.4360 c5         1 157      -0.076400
     13 C13         -0.1990    -0.2170    -3.7340 c5         1 157       0.163300
     14 C14          0.9590    -0.0660    -4.7130 c5         1 157      -0.112400
     15 C16         -0.4190    -0.1610    -1.1870 c3         1 157      -0.177700
     16 C15         -1.8260     0.3610    -1.2830 c          1 157       0.595900
     17 H11          0.1280     1.4740     0.1220 hc         1 157       0.045200
     18 H12          1.2620     0.1450     0.1160 hc         1 157       0.045200
     19 H21         -0.4120    -1.2840     1.3290 hc         1 157       0.046200
     20 H22         -1.4920     0.0880     1.4450 hc         1 157       0.046200
     21 H31          0.2630     1.3650     2.6930 hc         1 157       0.045700
     22 H32          1.3400    -0.0130     2.5590 hc         1 157       0.045700
     23 H41         -0.2830    -1.4130     3.8470 hc         1 157       0.056700
     24 H42         -1.3860    -0.0670     3.9490 hc         1 157       0.056700
     25 HN61         0.0630    -0.1690     7.1910 hn         1 157       0.469500
     26 HN62        -1.1240    -0.8980     6.2250 hn         1 157       0.469500
     27 HN7          1.8590     0.8930     4.4110 hn         1 157       0.384400
     28 H10          0.4390     1.3540    -2.4500 hc         1 157       0.065700
     29 H111         3.0930    -0.1790    -4.2420 hc         1 157       0.045700
     30 H112         2.2300    -1.6910    -4.0640 hc         1 157       0.045700
     31 H121         2.5390     0.4110    -2.0130 hc         1 157       0.046200
     32 H122         1.9010    -1.2060    -1.8280 hc         1 157       0.046200
     33 H13         -0.4400    -1.2880    -3.6410 h1         1 157       0.035700
     34 H141         1.0990     0.9960    -4.9380 hc         1 157       0.053200
     35 H142         0.7950    -0.5870    -5.6590 hc         1 157       0.053200
     36 H16         -0.4550    -1.2560    -1.1380 hc         1 157       0.069700
     37 H15         -1.8870     1.4600    -1.4070 h4         1 157      -0.009800
     38 HO9         -1.8630     0.0520    -4.7020 ho         1 157       0.450000
@<TRIPOS>BOND
     1     1     2 1   
     2     1    15 1   
     3     1    17 1   
     4     1    18 1   
     5     2     3 1   
     6     2    19 1   
     7     2    20 1   
     8     3     4 1   
     9     3    21 1   
    10     3    22 1   
    11     4     5 1   
    12     4    23 1   
    13     4    24 1   
    14     5     6 1   
    15     5     7 2   
    16     6    25 1   
    17     6    26 1   
    18     7    27 1   
    19     8    16 2   
    20     9    13 1   
    21     9    38 1   
    22    10    12 1   
    23    10    13 1   
    24    10    15 1   
    25    10    28 1   
    26    11    12 1   
    27    11    14 1   
    28    11    29 1   
    29    11    30 1   
    30    12    31 1   
    31    12    32 1   
    32    13    14 1   
    33    13    33 1   
    34    14    34 1   
    35    14    35 1   
    36    15    16 1   
    37    15    36 1   
    38    16    37 1   
@<TRIPOS>SUBSTRUCTURE
     1 157         1 TEMP              0 ****  ****    0 ROOT
